
---------- Begin Simulation Statistics ----------
sim_seconds                                  2.434845                       # Number of seconds simulated
sim_ticks                                2434845252000                       # Number of ticks simulated
final_tick                               2434845252000                       # Number of ticks from beginning of simulation (restored from checkpoints and never reset)
sim_freq                                 1000000000000                       # Frequency of simulated ticks
host_inst_rate                                 120424                       # Simulator instruction rate (inst/s)
host_op_rate                                   120424                       # Simulator op (including micro ops) rate (op/s)
host_tick_rate                             3055737067                       # Simulator tick rate (ticks/s)
host_mem_usage                                 973608                       # Number of bytes of host memory used
host_seconds                                   796.81                       # Real time elapsed on the host
sim_insts                                    95955047                       # Number of instructions simulated
sim_ops                                      95955047                       # Number of ops (including micro ops) simulated
system.mem_ctrls.bytes_read::cpu.inst      2833534976                       # Number of bytes read from this memory
system.mem_ctrls.bytes_read::cpu.data       130616232                       # Number of bytes read from this memory
system.mem_ctrls.bytes_read::tsunami.ide         5264                       # Number of bytes read from this memory
system.mem_ctrls.bytes_read::total         2964156472                       # Number of bytes read from this memory
system.mem_ctrls.bytes_inst_read::cpu.inst   2833534976                       # Number of instructions bytes read from this memory
system.mem_ctrls.bytes_inst_read::total    2833534976                       # Number of instructions bytes read from this memory
system.mem_ctrls.bytes_written::cpu.data     66284816                       # Number of bytes written to this memory
system.mem_ctrls.bytes_written::tsunami.ide      2844672                       # Number of bytes written to this memory
system.mem_ctrls.bytes_written::total        69129488                       # Number of bytes written to this memory
system.mem_ctrls.num_reads::cpu.inst         44273984                       # Number of read requests responded to by this memory
system.mem_ctrls.num_reads::cpu.data         18119668                       # Number of read requests responded to by this memory
system.mem_ctrls.num_reads::tsunami.ide           210                       # Number of read requests responded to by this memory
system.mem_ctrls.num_reads::total            62393862                       # Number of read requests responded to by this memory
system.mem_ctrls.num_writes::cpu.data         8863775                       # Number of write requests responded to by this memory
system.mem_ctrls.num_writes::tsunami.ide        44448                       # Number of write requests responded to by this memory
system.mem_ctrls.num_writes::total            8908223                       # Number of write requests responded to by this memory
system.mem_ctrls.bw_read::cpu.inst         1163743352                       # Total read bandwidth from this memory (bytes/s)
system.mem_ctrls.bw_read::cpu.data           53644572                       # Total read bandwidth from this memory (bytes/s)
system.mem_ctrls.bw_read::tsunami.ide            2162                       # Total read bandwidth from this memory (bytes/s)
system.mem_ctrls.bw_read::total            1217390087                       # Total read bandwidth from this memory (bytes/s)
system.mem_ctrls.bw_inst_read::cpu.inst    1163743352                       # Instruction read bandwidth from this memory (bytes/s)
system.mem_ctrls.bw_inst_read::total       1163743352                       # Instruction read bandwidth from this memory (bytes/s)
system.mem_ctrls.bw_write::cpu.data          27223420                       # Write bandwidth from this memory (bytes/s)
system.mem_ctrls.bw_write::tsunami.ide        1168317                       # Write bandwidth from this memory (bytes/s)
system.mem_ctrls.bw_write::total             28391738                       # Write bandwidth from this memory (bytes/s)
system.mem_ctrls.bw_total::cpu.inst        1163743352                       # Total bandwidth to/from this memory (bytes/s)
system.mem_ctrls.bw_total::cpu.data          80867993                       # Total bandwidth to/from this memory (bytes/s)
system.mem_ctrls.bw_total::tsunami.ide        1170479                       # Total bandwidth to/from this memory (bytes/s)
system.mem_ctrls.bw_total::total           1245781824                       # Total bandwidth to/from this memory (bytes/s)
system.piobus.throughput                        18845                       # Throughput (bytes/s)
system.piobus.trans_dist::ReadReq                6976                       # Transaction distribution
system.piobus.trans_dist::ReadResp               6976                       # Transaction distribution
system.piobus.trans_dist::WriteReq              10205                       # Transaction distribution
system.piobus.trans_dist::WriteResp             10205                       # Transaction distribution
system.piobus.pkt_count_system.ruby.l1_cntrl0.sequencer-pio-port::system.tsunami.cchip.pio         5512                       # Packet count per connected master and slave (bytes)
system.piobus.pkt_count_system.ruby.l1_cntrl0.sequencer-pio-port::system.tsunami.pchip.pio          324                       # Packet count per connected master and slave (bytes)
system.piobus.pkt_count_system.ruby.l1_cntrl0.sequencer-pio-port::system.tsunami.fake_sm_chip.pio           20                       # Packet count per connected master and slave (bytes)
system.piobus.pkt_count_system.ruby.l1_cntrl0.sequencer-pio-port::system.tsunami.fake_uart4.pio           20                       # Packet count per connected master and slave (bytes)
system.piobus.pkt_count_system.ruby.l1_cntrl0.sequencer-pio-port::system.tsunami.fake_ata0.pio           22                       # Packet count per connected master and slave (bytes)
system.piobus.pkt_count_system.ruby.l1_cntrl0.sequencer-pio-port::system.tsunami.fake_ata1.pio           22                       # Packet count per connected master and slave (bytes)
system.piobus.pkt_count_system.ruby.l1_cntrl0.sequencer-pio-port::system.tsunami.io.pio          208                       # Packet count per connected master and slave (bytes)
system.piobus.pkt_count_system.ruby.l1_cntrl0.sequencer-pio-port::system.tsunami.uart.pio        19632                       # Packet count per connected master and slave (bytes)
system.piobus.pkt_count_system.ruby.l1_cntrl0.sequencer-pio-port::system.tsunami.backdoor.pio         1910                       # Packet count per connected master and slave (bytes)
system.piobus.pkt_count_system.ruby.l1_cntrl0.sequencer-pio-port::system.tsunami.ide.pio         6052                       # Packet count per connected master and slave (bytes)
system.piobus.pkt_count_system.ruby.l1_cntrl0.sequencer-pio-port::system.tsunami.ide-pciconf          284                       # Packet count per connected master and slave (bytes)
system.piobus.pkt_count_system.ruby.l1_cntrl0.sequencer-pio-port::system.tsunami.ethernet.pio          100                       # Packet count per connected master and slave (bytes)
system.piobus.pkt_count_system.ruby.l1_cntrl0.sequencer-pio-port::system.tsunami.ethernet-pciconf          196                       # Packet count per connected master and slave (bytes)
system.piobus.pkt_count_system.ruby.l1_cntrl0.sequencer-pio-port::system.tsunami.pciconfig.pio           60                       # Packet count per connected master and slave (bytes)
system.piobus.pkt_count_system.ruby.l1_cntrl0.sequencer-pio-port::total        34362                       # Packet count per connected master and slave (bytes)
system.piobus.tot_pkt_size_system.ruby.l1_cntrl0.sequencer-pio-port::system.tsunami.cchip.pio        22048                       # Cumulative packet size per connected master and slave (bytes)
system.piobus.tot_pkt_size_system.ruby.l1_cntrl0.sequencer-pio-port::system.tsunami.pchip.pio         1296                       # Cumulative packet size per connected master and slave (bytes)
system.piobus.tot_pkt_size_system.ruby.l1_cntrl0.sequencer-pio-port::system.tsunami.fake_sm_chip.pio           10                       # Cumulative packet size per connected master and slave (bytes)
system.piobus.tot_pkt_size_system.ruby.l1_cntrl0.sequencer-pio-port::system.tsunami.fake_uart4.pio           10                       # Cumulative packet size per connected master and slave (bytes)
system.piobus.tot_pkt_size_system.ruby.l1_cntrl0.sequencer-pio-port::system.tsunami.fake_ata0.pio           11                       # Cumulative packet size per connected master and slave (bytes)
system.piobus.tot_pkt_size_system.ruby.l1_cntrl0.sequencer-pio-port::system.tsunami.fake_ata1.pio           11                       # Cumulative packet size per connected master and slave (bytes)
system.piobus.tot_pkt_size_system.ruby.l1_cntrl0.sequencer-pio-port::system.tsunami.io.pio          202                       # Cumulative packet size per connected master and slave (bytes)
system.piobus.tot_pkt_size_system.ruby.l1_cntrl0.sequencer-pio-port::system.tsunami.uart.pio         9816                       # Cumulative packet size per connected master and slave (bytes)
system.piobus.tot_pkt_size_system.ruby.l1_cntrl0.sequencer-pio-port::system.tsunami.backdoor.pio         7620                       # Cumulative packet size per connected master and slave (bytes)
system.piobus.tot_pkt_size_system.ruby.l1_cntrl0.sequencer-pio-port::system.tsunami.ide.pio         3829                       # Cumulative packet size per connected master and slave (bytes)
system.piobus.tot_pkt_size_system.ruby.l1_cntrl0.sequencer-pio-port::system.tsunami.ide-pciconf          400                       # Cumulative packet size per connected master and slave (bytes)
system.piobus.tot_pkt_size_system.ruby.l1_cntrl0.sequencer-pio-port::system.tsunami.ethernet.pio          200                       # Cumulative packet size per connected master and slave (bytes)
system.piobus.tot_pkt_size_system.ruby.l1_cntrl0.sequencer-pio-port::system.tsunami.ethernet-pciconf          311                       # Cumulative packet size per connected master and slave (bytes)
system.piobus.tot_pkt_size_system.ruby.l1_cntrl0.sequencer-pio-port::system.tsunami.pciconfig.pio          120                       # Cumulative packet size per connected master and slave (bytes)
system.piobus.tot_pkt_size_system.ruby.l1_cntrl0.sequencer-pio-port::total        45884                       # Cumulative packet size per connected master and slave (bytes)
system.piobus.data_through_bus                  45884                       # Total data (bytes)
system.piobus.reqLayer0.occupancy             6082000                       # Layer occupancy (ticks)
system.piobus.reqLayer0.utilization               0.0                       # Layer utilization (%)
system.piobus.reqLayer1.occupancy              280000                       # Layer occupancy (ticks)
system.piobus.reqLayer1.utilization               0.0                       # Layer utilization (%)
system.piobus.reqLayer2.occupancy               21500                       # Layer occupancy (ticks)
system.piobus.reqLayer2.utilization               0.0                       # Layer utilization (%)
system.piobus.reqLayer6.occupancy               21000                       # Layer occupancy (ticks)
system.piobus.reqLayer6.utilization               0.0                       # Layer utilization (%)
system.piobus.reqLayer19.occupancy              19500                       # Layer occupancy (ticks)
system.piobus.reqLayer19.utilization              0.0                       # Layer utilization (%)
system.piobus.reqLayer20.occupancy              20500                       # Layer occupancy (ticks)
system.piobus.reqLayer20.utilization              0.0                       # Layer utilization (%)
system.piobus.reqLayer22.occupancy             207500                       # Layer occupancy (ticks)
system.piobus.reqLayer22.utilization              0.0                       # Layer utilization (%)
system.piobus.reqLayer23.occupancy           17038500                       # Layer occupancy (ticks)
system.piobus.reqLayer23.utilization              0.0                       # Layer utilization (%)
system.piobus.reqLayer24.occupancy            2146500                       # Layer occupancy (ticks)
system.piobus.reqLayer24.utilization              0.0                       # Layer utilization (%)
system.piobus.reqLayer25.occupancy            5206500                       # Layer occupancy (ticks)
system.piobus.reqLayer25.utilization              0.0                       # Layer utilization (%)
system.piobus.reqLayer26.occupancy             212500                       # Layer occupancy (ticks)
system.piobus.reqLayer26.utilization              0.0                       # Layer utilization (%)
system.piobus.reqLayer27.occupancy              84500                       # Layer occupancy (ticks)
system.piobus.reqLayer27.utilization              0.0                       # Layer utilization (%)
system.piobus.reqLayer28.occupancy             142500                       # Layer occupancy (ticks)
system.piobus.reqLayer28.utilization              0.0                       # Layer utilization (%)
system.piobus.reqLayer30.occupancy              30500                       # Layer occupancy (ticks)
system.piobus.reqLayer30.utilization              0.0                       # Layer utilization (%)
system.piobus.respLayer0.occupancy           28284500                       # Layer occupancy (ticks)
system.piobus.respLayer0.utilization              0.0                       # Layer utilization (%)
system.ruby.l1_cntrl0.cacheMemory.demand_hits     66622131                       # Number of cache demand hits
system.ruby.l1_cntrl0.cacheMemory.demand_misses      4701279                       # Number of cache demand misses
system.ruby.l1_cntrl0.cacheMemory.demand_accesses     71323410                       # Number of cache demand accesses
system.ruby.network.routers0.percent_links_utilized     0.482656                      
system.ruby.network.routers0.msg_count.Control::2      4701279                      
system.ruby.network.routers0.msg_count.Data::2      4700255                      
system.ruby.network.routers0.msg_count.Response_Data::4      4701279                      
system.ruby.network.routers0.msg_count.Writeback_Control::3      4700369                      
system.ruby.network.routers0.msg_bytes.Control::2     37610232                      
system.ruby.network.routers0.msg_bytes.Data::2    338418360                      
system.ruby.network.routers0.msg_bytes.Response_Data::4    338492088                      
system.ruby.network.routers0.msg_bytes.Writeback_Control::3     37602952                      
system.ruby.dir_cntrl0.memBuffer.memReq       9446078                       # Total number of memory requests
system.ruby.dir_cntrl0.memBuffer.memRead      4701389                       # Number of memory reads
system.ruby.dir_cntrl0.memBuffer.memWrite      4744689                       # Number of memory writes
system.ruby.dir_cntrl0.memBuffer.memRefresh      3237436                       # Number of memory refreshes
system.ruby.dir_cntrl0.memBuffer.memWaitCycles     49069242                       # Delay stalled at the head of the bank queue
system.ruby.dir_cntrl0.memBuffer.memInputQ       426660                       # Delay in the input queue
system.ruby.dir_cntrl0.memBuffer.memBankQ      5734741                       # Delay behind the head of the bank queue
system.ruby.dir_cntrl0.memBuffer.totalStalls     55230643                       # Total number of stall cycles
system.ruby.dir_cntrl0.memBuffer.stallsPerReq     5.846939                       # Expected number of stall cycles per request
system.ruby.dir_cntrl0.memBuffer.memBankBusy     48186109                       # memory stalls due to busy bank
system.ruby.dir_cntrl0.memBuffer.memBusBusy       411627                       # memory stalls due to busy bus
system.ruby.dir_cntrl0.memBuffer.memReadWriteBusy       142116                       # memory stalls due to read write turnaround
system.ruby.dir_cntrl0.memBuffer.memDataBusBusy       192891                       # memory stalls due to read read turnaround
system.ruby.dir_cntrl0.memBuffer.memArbWait       136248                       # memory stalls due to arbitration
system.ruby.dir_cntrl0.memBuffer.memNotOld          251                       # memory stalls due to anti starvation
system.ruby.dir_cntrl0.memBuffer.memBankCount |      241439      2.56%      2.56% |      220706      2.34%      4.89% |      253643      2.69%      7.58% |      256032      2.71%     10.29% |      294838      3.12%     13.41% |      300701      3.18%     16.59% |      306265      3.24%     19.83% |      285632      3.02%     22.86% |      312916      3.31%     26.17% |      249156      2.64%     28.81% |      277812      2.94%     31.75% |      284040      3.01%     34.76% |      292124      3.09%     37.85% |      319267      3.38%     41.23% |      295526      3.13%     44.36% |      342538      3.63%     47.98% |      455334      4.82%     52.80% |      404512      4.28%     57.09% |      315368      3.34%     60.43% |      343130      3.63%     64.06% |      299384      3.17%     67.23% |      266038      2.82%     70.04% |      256218      2.71%     72.76% |      208278      2.20%     74.96% |      284587      3.01%     77.97% |      341660      3.62%     81.59% |      322967      3.42%     85.01% |      291230      3.08%     88.09% |      344338      3.65%     91.74% |      250180      2.65%     94.39% |      262397      2.78%     97.16% |      267822      2.84%    100.00% # Number of accesses per bank
system.ruby.dir_cntrl0.memBuffer.memBankCount::total      9446078                       # Number of accesses per bank

system.ruby.network.routers1.percent_links_utilized     0.483123                      
system.ruby.network.routers1.msg_count.Control::2      4701279                      
system.ruby.network.routers1.msg_count.Data::2      4700255                      
system.ruby.network.routers1.msg_count.Response_Data::1          210                      
system.ruby.network.routers1.msg_count.Response_Data::4      4701279                      
system.ruby.network.routers1.msg_count.Writeback_Control::0        44658                      
system.ruby.network.routers1.msg_count.Writeback_Control::1        44448                      
system.ruby.network.routers1.msg_count.Writeback_Control::3      4700369                      
system.ruby.network.routers1.msg_bytes.Control::2     37610232                      
system.ruby.network.routers1.msg_bytes.Data::2    338418360                      
system.ruby.network.routers1.msg_bytes.Response_Data::1        15120                      
system.ruby.network.routers1.msg_bytes.Response_Data::4    338492088                      
system.ruby.network.routers1.msg_bytes.Writeback_Control::0       357264                      
system.ruby.network.routers1.msg_bytes.Writeback_Control::1       355584                      
system.ruby.network.routers1.msg_bytes.Writeback_Control::3     37602952                      
system.ruby.network.routers2.percent_links_utilized     0.000467                      
system.ruby.network.routers2.msg_count.Response_Data::1          210                      
system.ruby.network.routers2.msg_count.Writeback_Control::0        44658                      
system.ruby.network.routers2.msg_count.Writeback_Control::1        44448                      
system.ruby.network.routers2.msg_bytes.Response_Data::1        15120                      
system.ruby.network.routers2.msg_bytes.Writeback_Control::0       357264                      
system.ruby.network.routers2.msg_bytes.Writeback_Control::1       355584                      
system.ruby.network.routers3.percent_links_utilized            0                      
system.ruby.network.routers4.percent_links_utilized     0.241562                      
system.ruby.network.routers4.msg_count.Control::2      4701279                      
system.ruby.network.routers4.msg_count.Data::2      4700255                      
system.ruby.network.routers4.msg_count.Response_Data::1          210                      
system.ruby.network.routers4.msg_count.Response_Data::4      4701279                      
system.ruby.network.routers4.msg_count.Writeback_Control::0        44658                      
system.ruby.network.routers4.msg_count.Writeback_Control::1        44448                      
system.ruby.network.routers4.msg_count.Writeback_Control::3      4700369                      
system.ruby.network.routers4.msg_bytes.Control::2     37610232                      
system.ruby.network.routers4.msg_bytes.Data::2    338418360                      
system.ruby.network.routers4.msg_bytes.Response_Data::1        15120                      
system.ruby.network.routers4.msg_bytes.Response_Data::4    338492088                      
system.ruby.network.routers4.msg_bytes.Writeback_Control::0       357264                      
system.ruby.network.routers4.msg_bytes.Writeback_Control::1       355584                      
system.ruby.network.routers4.msg_bytes.Writeback_Control::3     37602952                      
system.ruby.network.msg_count.Control        14103837                      
system.ruby.network.msg_count.Data           14100765                      
system.ruby.network.msg_count.Response_Data     14104467                      
system.ruby.network.msg_count.Writeback_Control     14368425                      
system.ruby.network.msg_byte.Control        112830696                      
system.ruby.network.msg_byte.Data          1015255080                      
system.ruby.network.msg_byte.Response_Data   1015521624                      
system.ruby.network.msg_byte.Writeback_Control    114947400                      
system.disk2.dma_read_full_pages                    0                       # Number of full page size DMA reads (not PRD).
system.disk2.dma_read_bytes                         0                       # Number of bytes transfered via DMA reads (not PRD).
system.disk2.dma_read_txs                           0                       # Number of DMA read transactions (not PRD).
system.disk2.dma_write_full_pages                   1                       # Number of full page size DMA writes.
system.disk2.dma_write_bytes                     8192                       # Number of bytes transfered via DMA writes.
system.disk2.dma_write_txs                          1                       # Number of DMA write transactions.
system.disk0.dma_read_full_pages                    0                       # Number of full page size DMA reads (not PRD).
system.disk0.dma_read_bytes                      4096                       # Number of bytes transfered via DMA reads (not PRD).
system.disk0.dma_read_txs                           1                       # Number of DMA read transactions (not PRD).
system.disk0.dma_write_full_pages                 326                       # Number of full page size DMA writes.
system.disk0.dma_write_bytes                  2836480                       # Number of bytes transfered via DMA writes.
system.disk0.dma_write_txs                        368                       # Number of DMA write transactions.
system.cpu.branchPred.lookups                44247289                       # Number of BP lookups
system.cpu.branchPred.condPredicted          34120608                       # Number of conditional branches predicted
system.cpu.branchPred.condIncorrect            658063                       # Number of conditional branches incorrect
system.cpu.branchPred.BTBLookups             28777292                       # Number of BTB lookups
system.cpu.branchPred.BTBHits                21531994                       # Number of BTB hits
system.cpu.branchPred.BTBCorrect                    0                       # Number of correct BTB predictions (this stat may not work properly.
system.cpu.branchPred.BTBHitPct             74.822864                       # BTB Hit Percentage
system.cpu.branchPred.usedRAS                 4232240                       # Number of times the RAS was used to get a target.
system.cpu.branchPred.RASInCorrect              76669                       # Number of incorrect RAS predictions.
system.cpu.dtb.fetch_hits                           0                       # ITB hits
system.cpu.dtb.fetch_misses                         0                       # ITB misses
system.cpu.dtb.fetch_acv                            0                       # ITB acv
system.cpu.dtb.fetch_accesses                       0                       # ITB accesses
system.cpu.dtb.read_hits                     40113903                       # DTB read hits
system.cpu.dtb.read_misses                      60801                       # DTB read misses
system.cpu.dtb.read_acv                           235                       # DTB read access violations
system.cpu.dtb.read_accesses                  1878796                       # DTB read accesses
system.cpu.dtb.write_hits                    10066190                       # DTB write hits
system.cpu.dtb.write_misses                      9551                       # DTB write misses
system.cpu.dtb.write_acv                          599                       # DTB write access violations
system.cpu.dtb.write_accesses                  402690                       # DTB write accesses
system.cpu.dtb.data_hits                     50180093                       # DTB hits
system.cpu.dtb.data_misses                      70352                       # DTB misses
system.cpu.dtb.data_acv                           834                       # DTB access violations
system.cpu.dtb.data_accesses                  2281486                       # DTB accesses
system.cpu.itb.fetch_hits                     2943698                       # ITB hits
system.cpu.itb.fetch_misses                     43394                       # ITB misses
system.cpu.itb.fetch_acv                         4033                       # ITB acv
system.cpu.itb.fetch_accesses                 2987092                       # ITB accesses
system.cpu.itb.read_hits                            0                       # DTB read hits
system.cpu.itb.read_misses                          0                       # DTB read misses
system.cpu.itb.read_acv                             0                       # DTB read access violations
system.cpu.itb.read_accesses                        0                       # DTB read accesses
system.cpu.itb.write_hits                           0                       # DTB write hits
system.cpu.itb.write_misses                         0                       # DTB write misses
system.cpu.itb.write_acv                            0                       # DTB write access violations
system.cpu.itb.write_accesses                       0                       # DTB write accesses
system.cpu.itb.data_hits                            0                       # DTB hits
system.cpu.itb.data_misses                          0                       # DTB misses
system.cpu.itb.data_acv                             0                       # DTB access violations
system.cpu.itb.data_accesses                        0                       # DTB accesses
system.cpu.numCycles                        466548919                       # number of cpu cycles simulated
system.cpu.numWorkItemsStarted                      0                       # number of work items this cpu started
system.cpu.numWorkItemsCompleted                    0                       # number of work items this cpu completed
system.cpu.fetch.icacheStallCycles          149850047                       # Number of cycles fetch is stalled on an Icache miss
system.cpu.fetch.Insts                      261317485                       # Number of instructions fetch has processed
system.cpu.fetch.Branches                    44247289                       # Number of branches that fetch encountered
system.cpu.fetch.predictedBranches           25764234                       # Number of branches that fetch has predicted taken
system.cpu.fetch.Cycles                      52063229                       # Number of cycles fetch has run and was not squashing or blocked
system.cpu.fetch.SquashCycles                26918858                       # Number of cycles fetch has spent squashing
system.cpu.fetch.BlockedCycles               75229192                       # Number of cycles fetch has spent blocked
system.cpu.fetch.MiscStallCycles              4460004                       # Number of cycles fetch has spent waiting on interrupts, or bad addresses, or out of MSHRs
system.cpu.fetch.PendingTrapStallCycles        383699                       # Number of stall cycles due to pending traps
system.cpu.fetch.PendingQuiesceStallCycles       330568                       # Number of stall cycles due to pending quiesce instructions
system.cpu.fetch.IcacheWaitRetryStallCycles      8584740                       # Number of stall cycles due to full MSHR
system.cpu.fetch.CacheLines                  44728714                       # Number of cache lines fetched
system.cpu.fetch.IcacheSquashes               9027195                       # Number of outstanding Icache misses that were squashed
system.cpu.fetch.rateDist::samples          307314816                       # Number of instructions fetched each cycle (Total)
system.cpu.fetch.rateDist::mean              0.850325                       # Number of instructions fetched each cycle (Total)
system.cpu.fetch.rateDist::stdev             2.164238                       # Number of instructions fetched each cycle (Total)
system.cpu.fetch.rateDist::underflows               0      0.00%      0.00% # Number of instructions fetched each cycle (Total)
system.cpu.fetch.rateDist::0                255251587     83.06%     83.06% # Number of instructions fetched each cycle (Total)
system.cpu.fetch.rateDist::1                  5835581      1.90%     84.96% # Number of instructions fetched each cycle (Total)
system.cpu.fetch.rateDist::2                  6958469      2.26%     87.22% # Number of instructions fetched each cycle (Total)
system.cpu.fetch.rateDist::3                  3963440      1.29%     88.51% # Number of instructions fetched each cycle (Total)
system.cpu.fetch.rateDist::4                  8447765      2.75%     91.26% # Number of instructions fetched each cycle (Total)
system.cpu.fetch.rateDist::5                  2025151      0.66%     91.92% # Number of instructions fetched each cycle (Total)
system.cpu.fetch.rateDist::6                  5391224      1.75%     93.67% # Number of instructions fetched each cycle (Total)
system.cpu.fetch.rateDist::7                  2122305      0.69%     94.36% # Number of instructions fetched each cycle (Total)
system.cpu.fetch.rateDist::8                 17319294      5.64%    100.00% # Number of instructions fetched each cycle (Total)
system.cpu.fetch.rateDist::overflows                0      0.00%    100.00% # Number of instructions fetched each cycle (Total)
system.cpu.fetch.rateDist::min_value                0                       # Number of instructions fetched each cycle (Total)
system.cpu.fetch.rateDist::max_value                8                       # Number of instructions fetched each cycle (Total)
system.cpu.fetch.rateDist::total            307314816                       # Number of instructions fetched each cycle (Total)
system.cpu.fetch.branchRate                  0.094840                       # Number of branch fetches per cycle
system.cpu.fetch.rate                        0.560107                       # Number of inst fetches per cycle
system.cpu.decode.IdleCycles                163514433                       # Number of cycles decode is idle
system.cpu.decode.BlockedCycles              76470941                       # Number of cycles decode is blocked
system.cpu.decode.RunCycles                  49264454                       # Number of cycles decode is running
system.cpu.decode.UnblockCycles               1728718                       # Number of cycles decode is unblocking
system.cpu.decode.SquashCycles               16336269                       # Number of cycles decode is squashing
system.cpu.decode.BranchResolved              1582210                       # Number of times decode resolved a branch
system.cpu.decode.BranchMispred                 82832                       # Number of times decode detected a branch misprediction
system.cpu.decode.DecodedInsts              255160245                       # Number of instructions handled by decode
system.cpu.decode.SquashedInsts                208170                       # Number of squashed instructions handled by decode
system.cpu.rename.SquashCycles               16336269                       # Number of cycles rename is squashing
system.cpu.rename.IdleCycles                171092651                       # Number of cycles rename is idle
system.cpu.rename.BlockCycles                28518829                       # Number of cycles rename is blocking
system.cpu.rename.serializeStallCycles       39180698                       # count of cycles rename stalled for serializing inst
system.cpu.rename.RunCycles                  44456526                       # Number of cycles rename is running
system.cpu.rename.UnblockCycles               7729841                       # Number of cycles rename is unblocking
system.cpu.rename.RenamedInsts              222127296                       # Number of instructions processed by rename
system.cpu.rename.ROBFullEvents                 39953                       # Number of times rename has blocked due to ROB full
system.cpu.rename.IQFullEvents                2422125                       # Number of times rename has blocked due to IQ full
system.cpu.rename.LSQFullEvents               3365223                       # Number of times rename has blocked due to LSQ full
system.cpu.rename.RenamedOperands           166121083                       # Number of destination operands rename has renamed
system.cpu.rename.RenameLookups             279547096                       # Number of register rename lookups that rename has made
system.cpu.rename.int_rename_lookups        279328106                       # Number of integer rename lookups
system.cpu.rename.fp_rename_lookups            204760                       # Number of floating rename lookups
system.cpu.rename.CommittedMaps              71419657                       # Number of HB maps that are committed
system.cpu.rename.UndoneMaps                 94701424                       # Number of HB maps that are undone due to squashing
system.cpu.rename.serializingInsts            2243326                       # count of serializing insts renamed
system.cpu.rename.tempSerializingInsts         526473                       # count of temporary serializing insts renamed
system.cpu.rename.skidInsts                  16542582                       # count of insts added to the skid buffer
system.cpu.memDep0.insertedLoads             45675074                       # Number of loads inserted to the mem dependence unit.
system.cpu.memDep0.insertedStores            14400565                       # Number of stores inserted to the mem dependence unit.
system.cpu.memDep0.conflictingLoads           1726928                       # Number of conflicting loads.
system.cpu.memDep0.conflictingStores           808010                       # Number of conflicting stores.
system.cpu.iq.iqInstsAdded                  178465151                       # Number of instructions added to the IQ (excludes non-spec)
system.cpu.iq.iqNonSpecInstsAdded             3062637                       # Number of non-speculative instructions added to the IQ
system.cpu.iq.iqInstsIssued                 141039301                       # Number of instructions issued
system.cpu.iq.iqSquashedInstsIssued            114797                       # Number of squashed instructions issued
system.cpu.iq.iqSquashedInstsExamined        84971996                       # Number of squashed instructions iterated over during squash; mainly for profiling
system.cpu.iq.iqSquashedOperandsExamined     77838896                       # Number of squashed operands that are examined and possibly removed from graph
system.cpu.iq.iqSquashedNonSpecRemoved        1914213                       # Number of squashed non-spec instructions that were removed
system.cpu.iq.issued_per_cycle::samples     307314816                       # Number of insts issued each cycle
system.cpu.iq.issued_per_cycle::mean         0.458941                       # Number of insts issued each cycle
system.cpu.iq.issued_per_cycle::stdev        1.067371                       # Number of insts issued each cycle
system.cpu.iq.issued_per_cycle::underflows            0      0.00%      0.00% # Number of insts issued each cycle
system.cpu.iq.issued_per_cycle::0           238293514     77.54%     77.54% # Number of insts issued each cycle
system.cpu.iq.issued_per_cycle::1            34614644     11.26%     88.80% # Number of insts issued each cycle
system.cpu.iq.issued_per_cycle::2            14039008      4.57%     93.37% # Number of insts issued each cycle
system.cpu.iq.issued_per_cycle::3            10264313      3.34%     96.71% # Number of insts issued each cycle
system.cpu.iq.issued_per_cycle::4             5439140      1.77%     98.48% # Number of insts issued each cycle
system.cpu.iq.issued_per_cycle::5             2559804      0.83%     99.32% # Number of insts issued each cycle
system.cpu.iq.issued_per_cycle::6             1774831      0.58%     99.89% # Number of insts issued each cycle
system.cpu.iq.issued_per_cycle::7              287360      0.09%     99.99% # Number of insts issued each cycle
system.cpu.iq.issued_per_cycle::8               42202      0.01%    100.00% # Number of insts issued each cycle
system.cpu.iq.issued_per_cycle::overflows            0      0.00%    100.00% # Number of insts issued each cycle
system.cpu.iq.issued_per_cycle::min_value            0                       # Number of insts issued each cycle
system.cpu.iq.issued_per_cycle::max_value            8                       # Number of insts issued each cycle
system.cpu.iq.issued_per_cycle::total       307314816                       # Number of insts issued each cycle
system.cpu.iq.fu_full::No_OpClass                   0      0.00%      0.00% # attempts to use FU when none available
system.cpu.iq.fu_full::IntAlu                   27798      1.26%      1.26% # attempts to use FU when none available
system.cpu.iq.fu_full::IntMult                      1      0.00%      1.26% # attempts to use FU when none available
system.cpu.iq.fu_full::IntDiv                       0      0.00%      1.26% # attempts to use FU when none available
system.cpu.iq.fu_full::FloatAdd                     0      0.00%      1.26% # attempts to use FU when none available
system.cpu.iq.fu_full::FloatCmp                     0      0.00%      1.26% # attempts to use FU when none available
system.cpu.iq.fu_full::FloatCvt                     0      0.00%      1.26% # attempts to use FU when none available
system.cpu.iq.fu_full::FloatMult                    0      0.00%      1.26% # attempts to use FU when none available
system.cpu.iq.fu_full::FloatDiv                     0      0.00%      1.26% # attempts to use FU when none available
system.cpu.iq.fu_full::FloatSqrt                    0      0.00%      1.26% # attempts to use FU when none available
system.cpu.iq.fu_full::SimdAdd                      0      0.00%      1.26% # attempts to use FU when none available
system.cpu.iq.fu_full::SimdAddAcc                   0      0.00%      1.26% # attempts to use FU when none available
system.cpu.iq.fu_full::SimdAlu                      0      0.00%      1.26% # attempts to use FU when none available
system.cpu.iq.fu_full::SimdCmp                      0      0.00%      1.26% # attempts to use FU when none available
system.cpu.iq.fu_full::SimdCvt                      0      0.00%      1.26% # attempts to use FU when none available
system.cpu.iq.fu_full::SimdMisc                     0      0.00%      1.26% # attempts to use FU when none available
system.cpu.iq.fu_full::SimdMult                     0      0.00%      1.26% # attempts to use FU when none available
system.cpu.iq.fu_full::SimdMultAcc                  0      0.00%      1.26% # attempts to use FU when none available
system.cpu.iq.fu_full::SimdShift                    0      0.00%      1.26% # attempts to use FU when none available
system.cpu.iq.fu_full::SimdShiftAcc                 0      0.00%      1.26% # attempts to use FU when none available
system.cpu.iq.fu_full::SimdSqrt                     0      0.00%      1.26% # attempts to use FU when none available
system.cpu.iq.fu_full::SimdFloatAdd                 0      0.00%      1.26% # attempts to use FU when none available
system.cpu.iq.fu_full::SimdFloatAlu                 0      0.00%      1.26% # attempts to use FU when none available
system.cpu.iq.fu_full::SimdFloatCmp                 0      0.00%      1.26% # attempts to use FU when none available
system.cpu.iq.fu_full::SimdFloatCvt                 0      0.00%      1.26% # attempts to use FU when none available
system.cpu.iq.fu_full::SimdFloatDiv                 0      0.00%      1.26% # attempts to use FU when none available
system.cpu.iq.fu_full::SimdFloatMisc                0      0.00%      1.26% # attempts to use FU when none available
system.cpu.iq.fu_full::SimdFloatMult                0      0.00%      1.26% # attempts to use FU when none available
system.cpu.iq.fu_full::SimdFloatMultAcc             0      0.00%      1.26% # attempts to use FU when none available
system.cpu.iq.fu_full::SimdFloatSqrt                0      0.00%      1.26% # attempts to use FU when none available
system.cpu.iq.fu_full::MemRead                1671590     75.67%     76.93% # attempts to use FU when none available
system.cpu.iq.fu_full::MemWrite                509607     23.07%    100.00% # attempts to use FU when none available
system.cpu.iq.fu_full::IprAccess                    0      0.00%    100.00% # attempts to use FU when none available
system.cpu.iq.fu_full::InstPrefetch                 0      0.00%    100.00% # attempts to use FU when none available
system.cpu.iq.FU_type_0::No_OpClass              8363      0.01%      0.01% # Type of FU issued
system.cpu.iq.FU_type_0::IntAlu              87677638     62.17%     62.17% # Type of FU issued
system.cpu.iq.FU_type_0::IntMult               205038      0.15%     62.32% # Type of FU issued
system.cpu.iq.FU_type_0::IntDiv                     0      0.00%     62.32% # Type of FU issued
system.cpu.iq.FU_type_0::FloatAdd               28949      0.02%     62.34% # Type of FU issued
system.cpu.iq.FU_type_0::FloatCmp                   0      0.00%     62.34% # Type of FU issued
system.cpu.iq.FU_type_0::FloatCvt                   0      0.00%     62.34% # Type of FU issued
system.cpu.iq.FU_type_0::FloatMult                  0      0.00%     62.34% # Type of FU issued
system.cpu.iq.FU_type_0::FloatDiv                4179      0.00%     62.34% # Type of FU issued
system.cpu.iq.FU_type_0::FloatSqrt                  0      0.00%     62.34% # Type of FU issued
system.cpu.iq.FU_type_0::SimdAdd                    0      0.00%     62.34% # Type of FU issued
system.cpu.iq.FU_type_0::SimdAddAcc                 0      0.00%     62.34% # Type of FU issued
system.cpu.iq.FU_type_0::SimdAlu                    0      0.00%     62.34% # Type of FU issued
system.cpu.iq.FU_type_0::SimdCmp                    0      0.00%     62.34% # Type of FU issued
system.cpu.iq.FU_type_0::SimdCvt                    0      0.00%     62.34% # Type of FU issued
system.cpu.iq.FU_type_0::SimdMisc                   0      0.00%     62.34% # Type of FU issued
system.cpu.iq.FU_type_0::SimdMult                   0      0.00%     62.34% # Type of FU issued
system.cpu.iq.FU_type_0::SimdMultAcc                0      0.00%     62.34% # Type of FU issued
system.cpu.iq.FU_type_0::SimdShift                  0      0.00%     62.34% # Type of FU issued
system.cpu.iq.FU_type_0::SimdShiftAcc               0      0.00%     62.34% # Type of FU issued
system.cpu.iq.FU_type_0::SimdSqrt                   0      0.00%     62.34% # Type of FU issued
system.cpu.iq.FU_type_0::SimdFloatAdd               0      0.00%     62.34% # Type of FU issued
system.cpu.iq.FU_type_0::SimdFloatAlu               0      0.00%     62.34% # Type of FU issued
system.cpu.iq.FU_type_0::SimdFloatCmp               0      0.00%     62.34% # Type of FU issued
system.cpu.iq.FU_type_0::SimdFloatCvt               0      0.00%     62.34% # Type of FU issued
system.cpu.iq.FU_type_0::SimdFloatDiv               0      0.00%     62.34% # Type of FU issued
system.cpu.iq.FU_type_0::SimdFloatMisc              0      0.00%     62.34% # Type of FU issued
system.cpu.iq.FU_type_0::SimdFloatMult              0      0.00%     62.34% # Type of FU issued
system.cpu.iq.FU_type_0::SimdFloatMultAcc            0      0.00%     62.34% # Type of FU issued
system.cpu.iq.FU_type_0::SimdFloatSqrt              0      0.00%     62.34% # Type of FU issued
system.cpu.iq.FU_type_0::MemRead             41728516     29.59%     91.93% # Type of FU issued
system.cpu.iq.FU_type_0::MemWrite            10309286      7.31%     99.24% # Type of FU issued
system.cpu.iq.FU_type_0::IprAccess            1077332      0.76%    100.00% # Type of FU issued
system.cpu.iq.FU_type_0::InstPrefetch               0      0.00%    100.00% # Type of FU issued
system.cpu.iq.FU_type_0::total              141039301                       # Type of FU issued
system.cpu.iq.rate                           0.302303                       # Inst issue rate
system.cpu.iq.fu_busy_cnt                     2208996                       # FU busy when requested
system.cpu.iq.fu_busy_rate                   0.015662                       # FU busy rate (busy events/executed inst)
system.cpu.iq.int_inst_queue_reads          588696087                       # Number of integer instruction queue reads
system.cpu.iq.int_inst_queue_writes         264078923                       # Number of integer instruction queue writes
system.cpu.iq.int_inst_queue_wakeup_accesses    116259229                       # Number of integer instruction queue wakeup accesses
system.cpu.iq.fp_inst_queue_reads             3021124                       # Number of floating instruction queue reads
system.cpu.iq.fp_inst_queue_writes            2429484                       # Number of floating instruction queue writes
system.cpu.iq.fp_inst_queue_wakeup_accesses       451244                       # Number of floating instruction queue wakeup accesses
system.cpu.iq.int_alu_accesses              141648641                       # Number of integer alu accesses
system.cpu.iq.fp_alu_accesses                 1591293                       # Number of floating point alu accesses
InstQueueB1                                 235437369                       # Number of cycles in B1 of Inst Queue
InstQueueB2                                  29953324                       # Number of cycles in B2 of Inst Queue
InstQueueB3                                  11092126                       # Number of cycles in B3 of Inst Queue
InstQueueB4                                  30831997                       # Number of cycles in B4 of Inst Queue
LoadQueueB1                                 247552716                       # Number of cycles in B1 of Load Queue
LoadQueueB2                                  29593179                       # Number of cycles in B1 of Load Queue
LoadQueueB3                                  27580654                       # Number of cycles in B1 of Load Queue
LoadQueueB4                                   2588267                       # Number of cycles in B1 of Load Queue
StoreQueueB1                                280164812                       # Number of cycles in B1 of Store Queue
StoreQueueB2                                 11849347                       # Number of cycles in B1 of Store Queue
StoreQueueB3                                  2806193                       # Number of cycles in B1 of Store Queue
StoreQueueB4                                 12494464                       # Number of cycles in B1 of Store Queue
system.cpu.iew.lsq.thread0.forwLoads           719139                       # Number of loads that had data forwarded from stores
system.cpu.iew.lsq.thread0.invAddrLoads             0                       # Number of loads ignored due to an invalid address
system.cpu.iew.lsq.thread0.squashedLoads     28617873                       # Number of loads squashed
system.cpu.iew.lsq.thread0.ignoredResponses        24976                       # Number of memory responses ignored because the instruction is squashed
system.cpu.iew.lsq.thread0.memOrderViolation         8761                       # Number of memory ordering violations
system.cpu.iew.lsq.thread0.squashedStores      5454575                       # Number of stores squashed
system.cpu.iew.lsq.thread0.invAddrSwpfs             0                       # Number of software prefetches ignored due to an invalid address
system.cpu.iew.lsq.thread0.blockedLoads             0                       # Number of blocked loads due to partial load-store forwarding
system.cpu.iew.lsq.thread0.rescheduledLoads        22467                       # Number of loads that were rescheduled
system.cpu.iew.lsq.thread0.cacheBlocked      31037538                       # Number of times an access to memory failed due to the cache being blocked
system.cpu.iew.iewIdleCycles                        0                       # Number of cycles IEW is idle
system.cpu.iew.iewSquashCycles               16336269                       # Number of cycles IEW is squashing
system.cpu.iew.iewBlockCycles                19021709                       # Number of cycles IEW is blocking
system.cpu.iew.iewUnblockCycles               1339400                       # Number of cycles IEW is unblocking
system.cpu.iew.iewDispatchedInsts           183784982                       # Number of instructions dispatched to IQ
system.cpu.iew.iewDispSquashedInsts          32131448                       # Number of squashed instructions skipped by dispatch
system.cpu.iew.iewDispLoadInsts              45675074                       # Number of dispatched load instructions
system.cpu.iew.iewDispStoreInsts             14400565                       # Number of dispatched store instructions
system.cpu.iew.iewDispNonSpecInsts            2448706                       # Number of dispatched non-speculative instructions
system.cpu.iew.iewIQFullEvents                  86017                       # Number of times the IQ has become full, causing a stall
system.cpu.iew.iewLSQFullEvents                  3906                       # Number of times the LSQ has become full, causing a stall
system.cpu.iew.memOrderViolationEvents           8761                       # Number of memory order violations
system.cpu.iew.predictedTakenIncorrect         304417                       # Number of branches that were predicted taken incorrectly
system.cpu.iew.predictedNotTakenIncorrect       552169                       # Number of branches that were predicted not taken incorrectly
system.cpu.iew.branchMispredicts               856586                       # Number of branch mispredicts detected at execute
system.cpu.iew.iewExecutedInsts             138634077                       # Number of executed instructions
system.cpu.iew.iewExecLoadInsts              40205300                       # Number of load instructions executed
system.cpu.iew.iewExecSquashedInsts           2405224                       # Number of squashed instructions skipped in execute
system.cpu.iew.exec_swp                             0                       # number of swp insts executed
system.cpu.iew.exec_nop                       2257194                       # number of nop insts executed
system.cpu.iew.exec_refs                     50298238                       # number of memory reference insts executed
system.cpu.iew.exec_branches                 19229294                       # Number of branches executed
system.cpu.iew.exec_stores                   10092938                       # Number of stores executed
system.cpu.iew.exec_rate                     0.297148                       # Inst execution rate
system.cpu.iew.wb_sent                      116868321                       # cumulative count of insts sent to commit
system.cpu.iew.wb_count                     116710473                       # cumulative count of insts written-back
system.cpu.iew.wb_producers                  55211928                       # num instructions producing a value
system.cpu.iew.wb_consumers                  72297610                       # num instructions consuming a value
system.cpu.iew.wb_penalized                         0                       # number of instrctions required to write to 'other' IQ
system.cpu.iew.wb_rate                       0.250157                       # insts written-back per cycle
system.cpu.iew.wb_fanout                     0.763676                       # average fanout of values written-back
system.cpu.iew.wb_penalized_rate                    0                       # fraction of instructions written-back that wrote to 'other' IQ
system.cpu.commit.commitSquashedInsts        86122485                       # The number of squashed insts skipped by commit
system.cpu.commit.commitNonSpecStalls         1148424                       # The number of times commit has been forced to stall to communicate backwards
system.cpu.commit.branchMispredicts            816966                       # The number of times a branch was mispredicted
system.cpu.commit.committed_per_cycle::samples    290978547                       # Number of insts commited each cycle
system.cpu.commit.committed_per_cycle::mean     0.335219                       # Number of insts commited each cycle
system.cpu.commit.committed_per_cycle::stdev     1.075093                       # Number of insts commited each cycle
system.cpu.commit.committed_per_cycle::underflows            0      0.00%      0.00% # Number of insts commited each cycle
system.cpu.commit.committed_per_cycle::0    245830956     84.48%     84.48% # Number of insts commited each cycle
system.cpu.commit.committed_per_cycle::1     25266477      8.68%     93.17% # Number of insts commited each cycle
system.cpu.commit.committed_per_cycle::2      8512831      2.93%     96.09% # Number of insts commited each cycle
system.cpu.commit.committed_per_cycle::3      4160111      1.43%     97.52% # Number of insts commited each cycle
system.cpu.commit.committed_per_cycle::4      1737762      0.60%     98.12% # Number of insts commited each cycle
system.cpu.commit.committed_per_cycle::5      2092171      0.72%     98.84% # Number of insts commited each cycle
system.cpu.commit.committed_per_cycle::6       486950      0.17%     99.01% # Number of insts commited each cycle
system.cpu.commit.committed_per_cycle::7       694798      0.24%     99.25% # Number of insts commited each cycle
system.cpu.commit.committed_per_cycle::8      2196491      0.75%    100.00% # Number of insts commited each cycle
system.cpu.commit.committed_per_cycle::overflows            0      0.00%    100.00% # Number of insts commited each cycle
system.cpu.commit.committed_per_cycle::min_value            0                       # Number of insts commited each cycle
system.cpu.commit.committed_per_cycle::max_value            8                       # Number of insts commited each cycle
system.cpu.commit.committed_per_cycle::total    290978547                       # Number of insts commited each cycle
system.cpu.commit.committedInsts             97541589                       # Number of instructions committed
system.cpu.commit.committedOps               97541589                       # Number of ops (including micro ops) committed
system.cpu.commit.swp_count                         0                       # Number of s/w prefetches committed
system.cpu.commit.refs                       26003191                       # Number of memory references committed
system.cpu.commit.loads                      17057201                       # Number of loads committed
system.cpu.commit.membars                      455657                       # Number of memory barriers committed
system.cpu.commit.branches                   16206821                       # Number of branches committed
system.cpu.commit.fp_insts                     432203                       # Number of committed floating point instructions.
system.cpu.commit.int_insts                  94467387                       # Number of committed integer instructions.
system.cpu.commit.function_calls              1454667                       # Number of function calls committed.
system.cpu.commit.bw_lim_events               2196491                       # number cycles where commit BW limit reached
system.cpu.commit.bw_limited                        0                       # number of insts not committed due to BW limits
system.cpu.rob.rob_reads                    472149787                       # The number of ROB reads
system.cpu.rob.rob_writes                   383670824                       # The number of ROB writes
ROBufferB1                                  212631382                       # Number of cycles in B1 of ROB
ROBufferB2                                   49285638                       # Number of cycles in B2 of ROB
ROBufferB3                                   38661732                       # Number of cycles in B3 of ROB
ROBufferB4                                    6736064                       # Number of cycles in B4 of ROB
system.cpu.timesIdled                         2618571                       # Number of times that the entire CPU went into an idle state and unscheduled itself
system.cpu.idleCycles                       159234103                       # Total number of cycles that the CPU has spent unscheduled due to idling
system.cpu.quiesceCycles                   4403134491                       # Total number of cycles that CPU has spent quiesced or waiting for an interrupt
system.cpu.committedInsts                    95955047                       # Number of Instructions Simulated
system.cpu.committedOps                      95955047                       # Number of Ops (including micro ops) Simulated
system.cpu.committedInsts_total              95955047                       # Number of Instructions Simulated
system.cpu.cpi                               4.862161                       # CPI: Cycles Per Instruction
system.cpu.cpi_total                         4.862161                       # CPI: Total CPI of All Threads
system.cpu.ipc                               0.205670                       # IPC: Instructions Per Cycle
system.cpu.ipc_total                         0.205670                       # IPC: Total IPC of All Threads
system.cpu.int_regfile_reads                176728837                       # number of integer regfile reads
system.cpu.int_regfile_writes                88495249                       # number of integer regfile writes
system.cpu.fp_regfile_reads                    196979                       # number of floating regfile reads
system.cpu.fp_regfile_writes                   185299                       # number of floating regfile writes
system.cpu.misc_regfile_reads                10056791                       # number of misc regfile reads
system.cpu.misc_regfile_writes                1337180                       # number of misc regfile writes
system.tsunami.ethernet.descDMAReads                0                       # Number of descriptors the device read w/ DMA
system.tsunami.ethernet.descDMAWrites               0                       # Number of descriptors the device wrote w/ DMA
system.tsunami.ethernet.descDmaReadBytes            0                       # number of descriptor bytes read w/ DMA
system.tsunami.ethernet.descDmaWriteBytes            0                       # number of descriptor bytes write w/ DMA
system.tsunami.ethernet.postedSwi                   0                       # number of software interrupts posted to CPU
system.tsunami.ethernet.coalescedSwi              nan                       # average number of Swi's coalesced into each post
system.tsunami.ethernet.totalSwi                    0                       # total number of Swi written to ISR
system.tsunami.ethernet.postedRxIdle                0                       # number of rxIdle interrupts posted to CPU
system.tsunami.ethernet.coalescedRxIdle           nan                       # average number of RxIdle's coalesced into each post
system.tsunami.ethernet.totalRxIdle                 0                       # total number of RxIdle written to ISR
system.tsunami.ethernet.postedRxOk                  0                       # number of RxOk interrupts posted to CPU
system.tsunami.ethernet.coalescedRxOk             nan                       # average number of RxOk's coalesced into each post
system.tsunami.ethernet.totalRxOk                   0                       # total number of RxOk written to ISR
system.tsunami.ethernet.postedRxDesc                0                       # number of RxDesc interrupts posted to CPU
system.tsunami.ethernet.coalescedRxDesc           nan                       # average number of RxDesc's coalesced into each post
system.tsunami.ethernet.totalRxDesc                 0                       # total number of RxDesc written to ISR
system.tsunami.ethernet.postedTxOk                  0                       # number of TxOk interrupts posted to CPU
system.tsunami.ethernet.coalescedTxOk             nan                       # average number of TxOk's coalesced into each post
system.tsunami.ethernet.totalTxOk                   0                       # total number of TxOk written to ISR
system.tsunami.ethernet.postedTxIdle                0                       # number of TxIdle interrupts posted to CPU
system.tsunami.ethernet.coalescedTxIdle           nan                       # average number of TxIdle's coalesced into each post
system.tsunami.ethernet.totalTxIdle                 0                       # total number of TxIdle written to ISR
system.tsunami.ethernet.postedTxDesc                0                       # number of TxDesc interrupts posted to CPU
system.tsunami.ethernet.coalescedTxDesc           nan                       # average number of TxDesc's coalesced into each post
system.tsunami.ethernet.totalTxDesc                 0                       # total number of TxDesc written to ISR
system.tsunami.ethernet.postedRxOrn                 0                       # number of RxOrn posted to CPU
system.tsunami.ethernet.coalescedRxOrn            nan                       # average number of RxOrn's coalesced into each post
system.tsunami.ethernet.totalRxOrn                  0                       # total number of RxOrn written to ISR
system.tsunami.ethernet.coalescedTotal            nan                       # average number of interrupts coalesced into each post
system.tsunami.ethernet.postedInterrupts            0                       # number of posts to CPU
system.tsunami.ethernet.droppedPackets              0                       # number of packets dropped
system.ruby.network.routers0.throttle0.link_utilization     0.482699                      
system.ruby.network.routers0.throttle0.msg_count.Response_Data::4      4701279                      
system.ruby.network.routers0.throttle0.msg_count.Writeback_Control::3      4700369                      
system.ruby.network.routers0.throttle0.msg_bytes.Response_Data::4    338492088                      
system.ruby.network.routers0.throttle0.msg_bytes.Writeback_Control::3     37602952                      
system.ruby.network.routers0.throttle1.link_utilization     0.482614                      
system.ruby.network.routers0.throttle1.msg_count.Control::2      4701279                      
system.ruby.network.routers0.throttle1.msg_count.Data::2      4700255                      
system.ruby.network.routers0.throttle1.msg_bytes.Control::2     37610232                      
system.ruby.network.routers0.throttle1.msg_bytes.Data::2    338418360                      
system.ruby.network.routers1.throttle0.link_utilization     0.483072                      
system.ruby.network.routers1.throttle0.msg_count.Control::2      4701279                      
system.ruby.network.routers1.throttle0.msg_count.Data::2      4700255                      
system.ruby.network.routers1.throttle0.msg_count.Writeback_Control::0        44658                      
system.ruby.network.routers1.throttle0.msg_bytes.Control::2     37610232                      
system.ruby.network.routers1.throttle0.msg_bytes.Data::2    338418360                      
system.ruby.network.routers1.throttle0.msg_bytes.Writeback_Control::0       357264                      
system.ruby.network.routers1.throttle1.link_utilization     0.483175                      
system.ruby.network.routers1.throttle1.msg_count.Response_Data::1          210                      
system.ruby.network.routers1.throttle1.msg_count.Response_Data::4      4701279                      
system.ruby.network.routers1.throttle1.msg_count.Writeback_Control::1        44448                      
system.ruby.network.routers1.throttle1.msg_count.Writeback_Control::3      4700369                      
system.ruby.network.routers1.throttle1.msg_bytes.Response_Data::1        15120                      
system.ruby.network.routers1.throttle1.msg_bytes.Response_Data::4    338492088                      
system.ruby.network.routers1.throttle1.msg_bytes.Writeback_Control::1       355584                      
system.ruby.network.routers1.throttle1.msg_bytes.Writeback_Control::3     37602952                      
system.ruby.network.routers2.throttle0.link_utilization     0.000476                      
system.ruby.network.routers2.throttle0.msg_count.Response_Data::1          210                      
system.ruby.network.routers2.throttle0.msg_count.Writeback_Control::1        44448                      
system.ruby.network.routers2.throttle0.msg_bytes.Response_Data::1        15120                      
system.ruby.network.routers2.throttle0.msg_bytes.Writeback_Control::1       355584                      
system.ruby.network.routers2.throttle1.link_utilization     0.000459                      
system.ruby.network.routers2.throttle1.msg_count.Writeback_Control::0        44658                      
system.ruby.network.routers2.throttle1.msg_bytes.Writeback_Control::0       357264                      
system.ruby.network.routers3.throttle0.link_utilization            0                      
system.ruby.network.routers3.throttle1.link_utilization            0                      
system.ruby.network.routers4.throttle0.link_utilization     0.482699                      
system.ruby.network.routers4.throttle0.msg_count.Response_Data::4      4701279                      
system.ruby.network.routers4.throttle0.msg_count.Writeback_Control::3      4700369                      
system.ruby.network.routers4.throttle0.msg_bytes.Response_Data::4    338492088                      
system.ruby.network.routers4.throttle0.msg_bytes.Writeback_Control::3     37602952                      
system.ruby.network.routers4.throttle1.link_utilization     0.483072                      
system.ruby.network.routers4.throttle1.msg_count.Control::2      4701279                      
system.ruby.network.routers4.throttle1.msg_count.Data::2      4700255                      
system.ruby.network.routers4.throttle1.msg_count.Writeback_Control::0        44658                      
system.ruby.network.routers4.throttle1.msg_bytes.Control::2     37610232                      
system.ruby.network.routers4.throttle1.msg_bytes.Data::2    338418360                      
system.ruby.network.routers4.throttle1.msg_bytes.Writeback_Control::0       357264                      
system.ruby.network.routers4.throttle2.link_utilization     0.000476                      
system.ruby.network.routers4.throttle2.msg_count.Response_Data::1          210                      
system.ruby.network.routers4.throttle2.msg_count.Writeback_Control::1        44448                      
system.ruby.network.routers4.throttle2.msg_bytes.Response_Data::1        15120                      
system.ruby.network.routers4.throttle2.msg_bytes.Writeback_Control::1       355584                      
system.ruby.network.routers4.throttle3.link_utilization            0                      
system.ruby.l1_cntrl0.Load                   17754007      0.00%      0.00%
system.ruby.l1_cntrl0.Ifetch                 44273984      0.00%      0.00%
system.ruby.l1_cntrl0.Store                   9295419      0.00%      0.00%
system.ruby.l1_cntrl0.Data                    4701279      0.00%      0.00%
system.ruby.l1_cntrl0.Inv                         228      0.00%      0.00%
system.ruby.l1_cntrl0.Replacement             4700141      0.00%      0.00%
system.ruby.l1_cntrl0.Writeback_Ack           4700255      0.00%      0.00%
system.ruby.l1_cntrl0.I.Load                  2857879      0.00%      0.00%
system.ruby.l1_cntrl0.I.Ifetch                1362289      0.00%      0.00%
system.ruby.l1_cntrl0.I.Store                  481111      0.00%      0.00%
system.ruby.l1_cntrl0.M.Load                 14896128      0.00%      0.00%
system.ruby.l1_cntrl0.M.Ifetch               42911695      0.00%      0.00%
system.ruby.l1_cntrl0.M.Store                 8814308      0.00%      0.00%
system.ruby.l1_cntrl0.M.Inv                       114      0.00%      0.00%
system.ruby.l1_cntrl0.M.Replacement           4700141      0.00%      0.00%
system.ruby.l1_cntrl0.MI.Inv                      114      0.00%      0.00%
system.ruby.l1_cntrl0.MI.Writeback_Ack        4700255      0.00%      0.00%
system.ruby.l1_cntrl0.IS.Data                 4220168      0.00%      0.00%
system.ruby.l1_cntrl0.IM.Data                  481111      0.00%      0.00%
system.ruby.dma_cntrl0.ReadRequest       |         210    100.00%    100.00% |           0      0.00%    100.00%
system.ruby.dma_cntrl0.ReadRequest::total          210                      

system.ruby.dma_cntrl0.WriteRequest      |       44448    100.00%    100.00% |           0      0.00%    100.00%
system.ruby.dma_cntrl0.WriteRequest::total        44448                      

system.ruby.dma_cntrl0.Data              |         210    100.00%    100.00% |           0      0.00%    100.00%
system.ruby.dma_cntrl0.Data::total                210                      

system.ruby.dma_cntrl0.Ack               |       44448    100.00%    100.00% |           0      0.00%    100.00%
system.ruby.dma_cntrl0.Ack::total               44448                      

system.ruby.dma_cntrl0.READY.ReadRequest |         210    100.00%    100.00% |           0      0.00%    100.00%
system.ruby.dma_cntrl0.READY.ReadRequest::total          210                      

system.ruby.dma_cntrl0.READY.WriteRequest |       44448    100.00%    100.00% |           0      0.00%    100.00%
system.ruby.dma_cntrl0.READY.WriteRequest::total        44448                      

system.ruby.dma_cntrl0.BUSY_RD.Data      |         210    100.00%    100.00% |           0      0.00%    100.00%
system.ruby.dma_cntrl0.BUSY_RD.Data::total          210                      

system.ruby.dma_cntrl0.BUSY_WR.Ack       |       44448    100.00%    100.00% |           0      0.00%    100.00%
system.ruby.dma_cntrl0.BUSY_WR.Ack::total        44448                      

system.ruby.dir_cntrl0.GETX                   4701279      0.00%      0.00%
system.ruby.dir_cntrl0.PUTX                   4700255      0.00%      0.00%
system.ruby.dir_cntrl0.DMA_READ                   210      0.00%      0.00%
system.ruby.dir_cntrl0.DMA_WRITE                44448      0.00%      0.00%
system.ruby.dir_cntrl0.Memory_Data            4701389      0.00%      0.00%
system.ruby.dir_cntrl0.Memory_Ack             4744689      0.00%      0.00%
system.ruby.dir_cntrl0.I.GETX                 4701279      0.00%      0.00%
system.ruby.dir_cntrl0.I.DMA_READ                 110      0.00%      0.00%
system.ruby.dir_cntrl0.I.DMA_WRITE              44434      0.00%      0.00%
system.ruby.dir_cntrl0.M.PUTX                 4700141      0.00%      0.00%
system.ruby.dir_cntrl0.M.DMA_READ                 100      0.00%      0.00%
system.ruby.dir_cntrl0.M.DMA_WRITE                 14      0.00%      0.00%
system.ruby.dir_cntrl0.M_DRD.PUTX                 100      0.00%      0.00%
system.ruby.dir_cntrl0.M_DWR.PUTX                  14      0.00%      0.00%
system.ruby.dir_cntrl0.M_DWRI.Memory_Ack           14      0.00%      0.00%
system.ruby.dir_cntrl0.M_DRDI.Memory_Ack          100      0.00%      0.00%
system.ruby.dir_cntrl0.IM.Memory_Data         4701279      0.00%      0.00%
system.ruby.dir_cntrl0.MI.Memory_Ack          4700141      0.00%      0.00%
system.ruby.dir_cntrl0.ID.Memory_Data             110      0.00%      0.00%
system.ruby.dir_cntrl0.ID_W.Memory_Ack          44434      0.00%      0.00%
system.cpu.kern.inst.arm                            0                       # number of arm instructions executed
system.cpu.kern.inst.quiesce                     7095                       # number of quiesce instructions executed
system.cpu.kern.inst.hwrei                     235971                       # number of hwrei instructions executed
system.cpu.kern.ipl_count::0                    82409     40.26%     40.26% # number of times we switched to this ipl
system.cpu.kern.ipl_count::21                     119      0.06%     40.32% # number of times we switched to this ipl
system.cpu.kern.ipl_count::22                    2425      1.18%     41.51% # number of times we switched to this ipl
system.cpu.kern.ipl_count::31                  119725     58.49%    100.00% # number of times we switched to this ipl
system.cpu.kern.ipl_count::total               204678                       # number of times we switched to this ipl
system.cpu.kern.ipl_good::0                     80872     49.23%     49.23% # number of times we switched to this ipl from a different ipl
system.cpu.kern.ipl_good::21                      119      0.07%     49.30% # number of times we switched to this ipl from a different ipl
system.cpu.kern.ipl_good::22                     2425      1.48%     50.77% # number of times we switched to this ipl from a different ipl
system.cpu.kern.ipl_good::31                    80873     49.23%    100.00% # number of times we switched to this ipl from a different ipl
system.cpu.kern.ipl_good::total                164289                       # number of times we switched to this ipl from a different ipl
system.cpu.kern.ipl_ticks::0             2326826634000     95.56%     95.56% # number of cycles we spent at this ipl
system.cpu.kern.ipl_ticks::21               100817500      0.00%     95.57% # number of cycles we spent at this ipl
system.cpu.kern.ipl_ticks::22               601774000      0.02%     95.59% # number of cycles we spent at this ipl
system.cpu.kern.ipl_ticks::31            107314426500      4.41%    100.00% # number of cycles we spent at this ipl
system.cpu.kern.ipl_ticks::total         2434843652000                       # number of cycles we spent at this ipl
system.cpu.kern.ipl_used::0                  0.981349                       # fraction of swpipl calls that actually changed the ipl
system.cpu.kern.ipl_used::21                        1                       # fraction of swpipl calls that actually changed the ipl
system.cpu.kern.ipl_used::22                        1                       # fraction of swpipl calls that actually changed the ipl
system.cpu.kern.ipl_used::31                 0.675490                       # fraction of swpipl calls that actually changed the ipl
system.cpu.kern.ipl_used::total              0.802671                       # fraction of swpipl calls that actually changed the ipl
system.cpu.kern.syscall::2                          8      2.19%      2.19% # number of syscalls executed
system.cpu.kern.syscall::3                         33      9.04%     11.23% # number of syscalls executed
system.cpu.kern.syscall::4                          4      1.10%     12.33% # number of syscalls executed
system.cpu.kern.syscall::6                         45     12.33%     24.66% # number of syscalls executed
system.cpu.kern.syscall::12                         2      0.55%     25.21% # number of syscalls executed
system.cpu.kern.syscall::15                         1      0.27%     25.48% # number of syscalls executed
system.cpu.kern.syscall::17                        18      4.93%     30.41% # number of syscalls executed
system.cpu.kern.syscall::19                        11      3.01%     33.42% # number of syscalls executed
system.cpu.kern.syscall::20                         6      1.64%     35.07% # number of syscalls executed
system.cpu.kern.syscall::23                         4      1.10%     36.16% # number of syscalls executed
system.cpu.kern.syscall::24                         8      2.19%     38.36% # number of syscalls executed
system.cpu.kern.syscall::33                        12      3.29%     41.64% # number of syscalls executed
system.cpu.kern.syscall::41                         2      0.55%     42.19% # number of syscalls executed
system.cpu.kern.syscall::45                        62     16.99%     59.18% # number of syscalls executed
system.cpu.kern.syscall::47                         8      2.19%     61.37% # number of syscalls executed
system.cpu.kern.syscall::48                        10      2.74%     64.11% # number of syscalls executed
system.cpu.kern.syscall::54                        11      3.01%     67.12% # number of syscalls executed
system.cpu.kern.syscall::58                         2      0.55%     67.67% # number of syscalls executed
system.cpu.kern.syscall::59                         7      1.92%     69.59% # number of syscalls executed
system.cpu.kern.syscall::71                        62     16.99%     86.58% # number of syscalls executed
system.cpu.kern.syscall::73                         5      1.37%     87.95% # number of syscalls executed
system.cpu.kern.syscall::74                        18      4.93%     92.88% # number of syscalls executed
system.cpu.kern.syscall::87                         2      0.55%     93.42% # number of syscalls executed
system.cpu.kern.syscall::90                         3      0.82%     94.25% # number of syscalls executed
system.cpu.kern.syscall::92                         9      2.47%     96.71% # number of syscalls executed
system.cpu.kern.syscall::97                         2      0.55%     97.26% # number of syscalls executed
system.cpu.kern.syscall::98                         2      0.55%     97.81% # number of syscalls executed
system.cpu.kern.syscall::132                        4      1.10%     98.90% # number of syscalls executed
system.cpu.kern.syscall::144                        2      0.55%     99.45% # number of syscalls executed
[...]
system.tsunami.ethernet.descDmaWriteBytes            0                       # number of descriptor bytes write w/ DMA
system.tsunami.ethernet.postedSwi                   0                       # number of software interrupts posted to CPU
system.tsunami.ethernet.coalescedSwi              nan                       # average number of Swi's coalesced into each post
system.tsunami.ethernet.totalSwi                    0                       # total number of Swi written to ISR
system.tsunami.ethernet.postedRxIdle                0                       # number of rxIdle interrupts posted to CPU
system.tsunami.ethernet.coalescedRxIdle           nan                       # average number of RxIdle's coalesced into each post
system.tsunami.ethernet.totalRxIdle                 0                       # total number of RxIdle written to ISR
system.tsunami.ethernet.postedRxOk                  0                       # number of RxOk interrupts posted to CPU
system.tsunami.ethernet.coalescedRxOk             nan                       # average number of RxOk's coalesced into each post
system.tsunami.ethernet.totalRxOk                   0                       # total number of RxOk written to ISR
system.tsunami.ethernet.postedRxDesc                0                       # number of RxDesc interrupts posted to CPU
system.tsunami.ethernet.coalescedRxDesc           nan                       # average number of RxDesc's coalesced into each post
system.tsunami.ethernet.totalRxDesc                 0                       # total number of RxDesc written to ISR
system.tsunami.ethernet.postedTxOk                  0                       # number of TxOk interrupts posted to CPU
system.tsunami.ethernet.coalescedTxOk             nan                       # average number of TxOk's coalesced into each post
system.tsunami.ethernet.totalTxOk                   0                       # total number of TxOk written to ISR
system.tsunami.ethernet.postedTxIdle                0                       # number of TxIdle interrupts posted to CPU
system.tsunami.ethernet.coalescedTxIdle           nan                       # average number of TxIdle's coalesced into each post
system.tsunami.ethernet.totalTxIdle                 0                       # total number of TxIdle written to ISR
system.tsunami.ethernet.postedTxDesc                0                       # number of TxDesc interrupts posted to CPU
system.tsunami.ethernet.coalescedTxDesc           nan                       # average number of TxDesc's coalesced into each post
system.tsunami.ethernet.totalTxDesc                 0                       # total number of TxDesc written to ISR
system.tsunami.ethernet.postedRxOrn                 0                       # number of RxOrn posted to CPU
system.tsunami.ethernet.coalescedRxOrn            nan                       # average number of RxOrn's coalesced into each post
system.tsunami.ethernet.totalRxOrn                  0                       # total number of RxOrn written to ISR
system.tsunami.ethernet.coalescedTotal            nan                       # average number of interrupts coalesced into each post
system.tsunami.ethernet.postedInterrupts            0                       # number of posts to CPU
system.tsunami.ethernet.droppedPackets              0                       # number of packets dropped
system.ruby.network.routers0.throttle0.link_utilization     4.191627                      
system.ruby.network.routers0.throttle0.msg_count.Response_Data::4        41086                      
system.ruby.network.routers0.throttle0.msg_count.Writeback_Control::3        41089                      
system.ruby.network.routers0.throttle0.msg_bytes.Response_Data::4      2958192                      
system.ruby.network.routers0.throttle0.msg_bytes.Writeback_Control::3       328712                      
system.ruby.network.routers0.throttle1.link_utilization     4.191494                      
system.ruby.network.routers0.throttle1.msg_count.Control::2        41085                      
system.ruby.network.routers0.throttle1.msg_count.Data::2        41085                      
system.ruby.network.routers0.throttle1.msg_bytes.Control::2       328680                      
system.ruby.network.routers0.throttle1.msg_bytes.Data::2      2958120                      
system.ruby.network.routers1.throttle0.link_utilization     4.193483                      
system.ruby.network.routers1.throttle0.msg_count.Control::2        41085                      
system.ruby.network.routers1.throttle0.msg_count.Data::2        41085                      
system.ruby.network.routers1.throttle0.msg_count.Writeback_Control::0          195                      
system.ruby.network.routers1.throttle0.msg_bytes.Control::2       328680                      
system.ruby.network.routers1.throttle0.msg_bytes.Data::2      2958120                      
system.ruby.network.routers1.throttle0.msg_bytes.Writeback_Control::0         1560                      
system.ruby.network.routers1.throttle1.link_utilization     4.193861                      
system.ruby.network.routers1.throttle1.msg_count.Response_Data::1            3                      
system.ruby.network.routers1.throttle1.msg_count.Response_Data::4        41086                      
system.ruby.network.routers1.throttle1.msg_count.Writeback_Control::1          192                      
system.ruby.network.routers1.throttle1.msg_count.Writeback_Control::3        41089                      
system.ruby.network.routers1.throttle1.msg_bytes.Response_Data::1          216                      
system.ruby.network.routers1.throttle1.msg_bytes.Response_Data::4      2958192                      
system.ruby.network.routers1.throttle1.msg_bytes.Writeback_Control::1         1536                      
system.ruby.network.routers1.throttle1.msg_bytes.Writeback_Control::3       328712                      
system.ruby.network.routers2.throttle0.link_utilization     0.002234                      
system.ruby.network.routers2.throttle0.msg_count.Response_Data::1            3                      
system.ruby.network.routers2.throttle0.msg_count.Writeback_Control::1          192                      
system.ruby.network.routers2.throttle0.msg_bytes.Response_Data::1          216                      
system.ruby.network.routers2.throttle0.msg_bytes.Writeback_Control::1         1536                      
system.ruby.network.routers2.throttle1.link_utilization     0.001989                      
system.ruby.network.routers2.throttle1.msg_count.Writeback_Control::0          195                      
system.ruby.network.routers2.throttle1.msg_bytes.Writeback_Control::0         1560                      
system.ruby.network.routers3.throttle0.link_utilization            0                      
system.ruby.network.routers3.throttle1.link_utilization            0                      
system.ruby.network.routers4.throttle0.link_utilization     4.191627                      
system.ruby.network.routers4.throttle0.msg_count.Response_Data::4        41086                      
system.ruby.network.routers4.throttle0.msg_count.Writeback_Control::3        41089                      
system.ruby.network.routers4.throttle0.msg_bytes.Response_Data::4      2958192                      
system.ruby.network.routers4.throttle0.msg_bytes.Writeback_Control::3       328712                      
system.ruby.network.routers4.throttle1.link_utilization     4.193483                      
system.ruby.network.routers4.throttle1.msg_count.Control::2        41085                      
system.ruby.network.routers4.throttle1.msg_count.Data::2        41085                      
system.ruby.network.routers4.throttle1.msg_count.Writeback_Control::0          195                      
system.ruby.network.routers4.throttle1.msg_bytes.Control::2       328680                      
system.ruby.network.routers4.throttle1.msg_bytes.Data::2      2958120                      
system.ruby.network.routers4.throttle1.msg_bytes.Writeback_Control::0         1560                      
system.ruby.network.routers4.throttle2.link_utilization     0.002234                      
system.ruby.network.routers4.throttle2.msg_count.Response_Data::1            3                      
system.ruby.network.routers4.throttle2.msg_count.Writeback_Control::1          192                      
system.ruby.network.routers4.throttle2.msg_bytes.Response_Data::1          216                      
system.ruby.network.routers4.throttle2.msg_bytes.Writeback_Control::1         1536                      
system.ruby.network.routers4.throttle3.link_utilization            0                      
system.ruby.l1_cntrl0.Load                     197045      0.00%      0.00%
system.ruby.l1_cntrl0.Ifetch                   514875      0.00%      0.00%
system.ruby.l1_cntrl0.Store                    155983      0.00%      0.00%
system.ruby.l1_cntrl0.Data                      41086      0.00%      0.00%
system.ruby.l1_cntrl0.Inv                           6      0.00%      0.00%
system.ruby.l1_cntrl0.Replacement               41082      0.00%      0.00%
system.ruby.l1_cntrl0.Writeback_Ack             41086      0.00%      0.00%
system.ruby.l1_cntrl0.I.Load                    12882      0.00%      0.00%
system.ruby.l1_cntrl0.I.Ifetch                  17805      0.00%      0.00%
system.ruby.l1_cntrl0.I.Store                   10398      0.00%      0.00%
system.ruby.l1_cntrl0.M.Load                   184163      0.00%      0.00%
system.ruby.l1_cntrl0.M.Ifetch                 497070      0.00%      0.00%
system.ruby.l1_cntrl0.M.Store                  145585      0.00%      0.00%
system.ruby.l1_cntrl0.M.Inv                         3      0.00%      0.00%
system.ruby.l1_cntrl0.M.Replacement             41082      0.00%      0.00%
system.ruby.l1_cntrl0.MI.Inv                        3      0.00%      0.00%
system.ruby.l1_cntrl0.MI.Writeback_Ack          41086      0.00%      0.00%
system.ruby.l1_cntrl0.IS.Data                   30688      0.00%      0.00%
system.ruby.l1_cntrl0.IM.Data                   10398      0.00%      0.00%
system.ruby.dma_cntrl0.ReadRequest       |           3    100.00%    100.00% |           0      0.00%    100.00%
system.ruby.dma_cntrl0.ReadRequest::total            3                      

system.ruby.dma_cntrl0.WriteRequest      |         192    100.00%    100.00% |           0      0.00%    100.00%
system.ruby.dma_cntrl0.WriteRequest::total          192                      

system.ruby.dma_cntrl0.Data              |           3    100.00%    100.00% |           0      0.00%    100.00%
system.ruby.dma_cntrl0.Data::total                  3                      

system.ruby.dma_cntrl0.Ack               |         192    100.00%    100.00% |           0      0.00%    100.00%
system.ruby.dma_cntrl0.Ack::total                 192                      

system.ruby.dma_cntrl0.READY.ReadRequest |           3    100.00%    100.00% |           0      0.00%    100.00%
system.ruby.dma_cntrl0.READY.ReadRequest::total            3                      

system.ruby.dma_cntrl0.READY.WriteRequest |         192    100.00%    100.00% |           0      0.00%    100.00%
system.ruby.dma_cntrl0.READY.WriteRequest::total          192                      

system.ruby.dma_cntrl0.BUSY_RD.Data      |           3    100.00%    100.00% |           0      0.00%    100.00%
system.ruby.dma_cntrl0.BUSY_RD.Data::total            3                      

system.ruby.dma_cntrl0.BUSY_WR.Ack       |         192    100.00%    100.00% |           0      0.00%    100.00%
system.ruby.dma_cntrl0.BUSY_WR.Ack::total          192                      

system.ruby.dir_cntrl0.GETX                     41085      0.00%      0.00%
system.ruby.dir_cntrl0.PUTX                     41085      0.00%      0.00%
system.ruby.dir_cntrl0.DMA_READ                     3      0.00%      0.00%
system.ruby.dir_cntrl0.DMA_WRITE                  192      0.00%      0.00%
system.ruby.dir_cntrl0.Memory_Data              41086      0.00%      0.00%
system.ruby.dir_cntrl0.Memory_Ack               41278      0.00%      0.00%
system.ruby.dir_cntrl0.I.GETX                   41085      0.00%      0.00%
system.ruby.dir_cntrl0.I.DMA_WRITE                192      0.00%      0.00%
system.ruby.dir_cntrl0.M.PUTX                   41082      0.00%      0.00%
system.ruby.dir_cntrl0.M.DMA_READ                   3      0.00%      0.00%
system.ruby.dir_cntrl0.M_DRD.PUTX                   3      0.00%      0.00%
system.ruby.dir_cntrl0.M_DRDI.Memory_Ack            3      0.00%      0.00%
system.ruby.dir_cntrl0.IM.Memory_Data           41086      0.00%      0.00%
system.ruby.dir_cntrl0.MI.Memory_Ack            41083      0.00%      0.00%
system.ruby.dir_cntrl0.ID_W.Memory_Ack            192      0.00%      0.00%
system.cpu.kern.inst.arm                            0                       # number of arm instructions executed
system.cpu.kern.inst.quiesce                        9                       # number of quiesce instructions executed
system.cpu.kern.inst.hwrei                       3630                       # number of hwrei instructions executed
system.cpu.kern.ipl_count::0                      781     43.70%     43.70% # number of times we switched to this ipl
system.cpu.kern.ipl_count::21                      11      0.62%     44.32% # number of times we switched to this ipl
system.cpu.kern.ipl_count::22                       3      0.17%     44.49% # number of times we switched to this ipl
system.cpu.kern.ipl_count::31                     992     55.51%    100.00% # number of times we switched to this ipl
system.cpu.kern.ipl_count::total                 1787                       # number of times we switched to this ipl
system.cpu.kern.ipl_good::0                       779     49.55%     49.55% # number of times we switched to this ipl from a different ipl
system.cpu.kern.ipl_good::21                       11      0.70%     50.25% # number of times we switched to this ipl from a different ipl
system.cpu.kern.ipl_good::22                        3      0.19%     50.45% # number of times we switched to this ipl from a different ipl
system.cpu.kern.ipl_good::31                      779     49.55%    100.00% # number of times we switched to this ipl from a different ipl
system.cpu.kern.ipl_good::total                  1572                       # number of times we switched to this ipl from a different ipl
system.cpu.kern.ipl_ticks::0               2106161500     85.85%     85.85% # number of cycles we spent at this ipl
system.cpu.kern.ipl_ticks::21                 7566500      0.31%     86.16% # number of cycles we spent at this ipl
system.cpu.kern.ipl_ticks::22                 2179000      0.09%     86.25% # number of cycles we spent at this ipl
system.cpu.kern.ipl_ticks::31               337377000     13.75%    100.00% # number of cycles we spent at this ipl
system.cpu.kern.ipl_ticks::total           2453284000                       # number of cycles we spent at this ipl
system.cpu.kern.ipl_used::0                  0.997439                       # fraction of swpipl calls that actually changed the ipl
system.cpu.kern.ipl_used::21                        1                       # fraction of swpipl calls that actually changed the ipl
system.cpu.kern.ipl_used::22                        1                       # fraction of swpipl calls that actually changed the ipl
system.cpu.kern.ipl_used::31                 0.785282                       # fraction of swpipl calls that actually changed the ipl
system.cpu.kern.ipl_used::total              0.879687                       # fraction of swpipl calls that actually changed the ipl
system.cpu.kern.syscall::2                          1      3.45%      3.45% # number of syscalls executed
system.cpu.kern.syscall::3                          2      6.90%     10.34% # number of syscalls executed
system.cpu.kern.syscall::4                          5     17.24%     27.59% # number of syscalls executed
system.cpu.kern.syscall::6                          3     10.34%     37.93% # number of syscalls executed
system.cpu.kern.syscall::17                         2      6.90%     44.83% # number of syscalls executed
system.cpu.kern.syscall::33                         1      3.45%     48.28% # number of syscalls executed
system.cpu.kern.syscall::45                         4     13.79%     62.07% # number of syscalls executed
system.cpu.kern.syscall::48                         1      3.45%     65.52% # number of syscalls executed
system.cpu.kern.syscall::54                         1      3.45%     68.97% # number of syscalls executed
system.cpu.kern.syscall::59                         1      3.45%     72.41% # number of syscalls executed
system.cpu.kern.syscall::71                         6     20.69%     93.10% # number of syscalls executed
system.cpu.kern.syscall::73                         1      3.45%     96.55% # number of syscalls executed
system.cpu.kern.syscall::74                         1      3.45%    100.00% # number of syscalls executed
system.cpu.kern.syscall::total                     29                       # number of syscalls executed
system.cpu.kern.callpal::swpctx                   121      5.87%      5.87% # number of callpals executed
system.cpu.kern.callpal::tbi                        6      0.29%      6.17% # number of callpals executed
system.cpu.kern.callpal::swpipl                  1563     75.87%     82.04% # number of callpals executed
system.cpu.kern.callpal::rdps                      37      1.80%     83.83% # number of callpals executed
system.cpu.kern.callpal::wrusp                      1      0.05%     83.88% # number of callpals executed
system.cpu.kern.callpal::rdusp                      1      0.05%     83.93% # number of callpals executed
system.cpu.kern.callpal::rti                      210     10.19%     94.13% # number of callpals executed
system.cpu.kern.callpal::callsys                   46      2.23%     96.36% # number of callpals executed
system.cpu.kern.callpal::imb                        9      0.44%     96.80% # number of callpals executed
system.cpu.kern.callpal::rdunique                  66      3.20%    100.00% # number of callpals executed
system.cpu.kern.callpal::total                   2060                       # number of callpals executed
system.cpu.kern.mode_switch::kernel               327                       # number of protection mode switches
system.cpu.kern.mode_switch::user                 195                       # number of protection mode switches
system.cpu.kern.mode_switch::idle                   4                       # number of protection mode switches
system.cpu.kern.mode_good::kernel                 197                      
system.cpu.kern.mode_good::user                   195                      
system.cpu.kern.mode_good::idle                     2                      
system.cpu.kern.mode_switch_good::kernel     0.602446                       # fraction of useful protection mode switches
system.cpu.kern.mode_switch_good::user              1                       # fraction of useful protection mode switches
system.cpu.kern.mode_switch_good::idle       0.500000                       # fraction of useful protection mode switches
system.cpu.kern.mode_switch_good::total      0.749049                       # fraction of useful protection mode switches
system.cpu.kern.mode_ticks::kernel         1832509500     74.70%     74.70% # number of ticks spent at the given mode
system.cpu.kern.mode_ticks::user            578999500     23.60%     98.30% # number of ticks spent at the given mode
system.cpu.kern.mode_ticks::idle             41775000      1.70%    100.00% # number of ticks spent at the given mode
system.cpu.kern.swap_context                      121                       # number of times the context was actually changed

---------- End Simulation Statistics   ----------
