
---------- Begin Simulation Statistics ----------
sim_seconds                                  2.435084                       # Number of seconds simulated
sim_ticks                                2435083876500                       # Number of ticks simulated
final_tick                               2435083876500                       # Number of ticks from beginning of simulation (restored from checkpoints and never reset)
sim_freq                                 1000000000000                       # Frequency of simulated ticks
host_inst_rate                                 121474                       # Simulator instruction rate (inst/s)
host_op_rate                                   121474                       # Simulator op (including micro ops) rate (op/s)
host_tick_rate                             3082836267                       # Simulator tick rate (ticks/s)
host_mem_usage                                 973608                       # Number of bytes of host memory used
host_seconds                                   789.88                       # Real time elapsed on the host
sim_insts                                    95950309                       # Number of instructions simulated
sim_ops                                      95950309                       # Number of ops (including micro ops) simulated
system.mem_ctrls.bytes_read::cpu.inst      2841220864                       # Number of bytes read from this memory
system.mem_ctrls.bytes_read::cpu.data       130612144                       # Number of bytes read from this memory
system.mem_ctrls.bytes_read::tsunami.ide         5264                       # Number of bytes read from this memory
system.mem_ctrls.bytes_read::total         2971838272                       # Number of bytes read from this memory
system.mem_ctrls.bytes_inst_read::cpu.inst   2841220864                       # Number of instructions bytes read from this memory
system.mem_ctrls.bytes_inst_read::total    2841220864                       # Number of instructions bytes read from this memory
system.mem_ctrls.bytes_written::cpu.data     66278376                       # Number of bytes written to this memory
system.mem_ctrls.bytes_written::tsunami.ide      2844672                       # Number of bytes written to this memory
system.mem_ctrls.bytes_written::total        69123048                       # Number of bytes written to this memory
system.mem_ctrls.num_reads::cpu.inst         44394076                       # Number of read requests responded to by this memory
system.mem_ctrls.num_reads::cpu.data         18119106                       # Number of read requests responded to by this memory
system.mem_ctrls.num_reads::tsunami.ide           210                       # Number of read requests responded to by this memory
system.mem_ctrls.num_reads::total            62513392                       # Number of read requests responded to by this memory
system.mem_ctrls.num_writes::cpu.data         8862928                       # Number of write requests responded to by this memory
system.mem_ctrls.num_writes::tsunami.ide        44448                       # Number of write requests responded to by this memory
system.mem_ctrls.num_writes::total            8907376                       # Number of write requests responded to by this memory
system.mem_ctrls.bw_read::cpu.inst         1166785626                       # Total read bandwidth from this memory (bytes/s)
system.mem_ctrls.bw_read::cpu.data           53637637                       # Total read bandwidth from this memory (bytes/s)
system.mem_ctrls.bw_read::tsunami.ide            2162                       # Total read bandwidth from this memory (bytes/s)
system.mem_ctrls.bw_read::total            1220425424                       # Total read bandwidth from this memory (bytes/s)
system.mem_ctrls.bw_inst_read::cpu.inst    1166785626                       # Instruction read bandwidth from this memory (bytes/s)
system.mem_ctrls.bw_inst_read::total       1166785626                       # Instruction read bandwidth from this memory (bytes/s)
system.mem_ctrls.bw_write::cpu.data          27218108                       # Write bandwidth from this memory (bytes/s)
system.mem_ctrls.bw_write::tsunami.ide        1168203                       # Write bandwidth from this memory (bytes/s)
system.mem_ctrls.bw_write::total             28386311                       # Write bandwidth from this memory (bytes/s)
system.mem_ctrls.bw_total::cpu.inst        1166785626                       # Total bandwidth to/from this memory (bytes/s)
system.mem_ctrls.bw_total::cpu.data          80855745                       # Total bandwidth to/from this memory (bytes/s)
system.mem_ctrls.bw_total::tsunami.ide        1170365                       # Total bandwidth to/from this memory (bytes/s)
system.mem_ctrls.bw_total::total           1248811735                       # Total bandwidth to/from this memory (bytes/s)
system.piobus.throughput                        18843                       # Throughput (bytes/s)
system.piobus.trans_dist::ReadReq                6976                       # Transaction distribution
system.piobus.trans_dist::ReadResp               6976                       # Transaction distribution
system.piobus.trans_dist::WriteReq              10205                       # Transaction distribution
system.piobus.trans_dist::WriteResp             10205                       # Transaction distribution
system.piobus.pkt_count_system.ruby.l1_cntrl0.sequencer-pio-port::system.tsunami.cchip.pio         5512                       # Packet count per connected master and slave (bytes)
system.piobus.pkt_count_system.ruby.l1_cntrl0.sequencer-pio-port::system.tsunami.pchip.pio          324                       # Packet count per connected master and slave (bytes)
system.piobus.pkt_count_system.ruby.l1_cntrl0.sequencer-pio-port::system.tsunami.fake_sm_chip.pio           20                       # Packet count per connected master and slave (bytes)
system.piobus.pkt_count_system.ruby.l1_cntrl0.sequencer-pio-port::system.tsunami.fake_uart4.pio           20                       # Packet count per connected master and slave (bytes)
system.piobus.pkt_count_system.ruby.l1_cntrl0.sequencer-pio-port::system.tsunami.fake_ata0.pio           22                       # Packet count per connected master and slave (bytes)
system.piobus.pkt_count_system.ruby.l1_cntrl0.sequencer-pio-port::system.tsunami.fake_ata1.pio           22                       # Packet count per connected master and slave (bytes)
system.piobus.pkt_count_system.ruby.l1_cntrl0.sequencer-pio-port::system.tsunami.io.pio          208                       # Packet count per connected master and slave (bytes)
system.piobus.pkt_count_system.ruby.l1_cntrl0.sequencer-pio-port::system.tsunami.uart.pio        19632                       # Packet count per connected master and slave (bytes)
system.piobus.pkt_count_system.ruby.l1_cntrl0.sequencer-pio-port::system.tsunami.backdoor.pio         1910                       # Packet count per connected master and slave (bytes)
system.piobus.pkt_count_system.ruby.l1_cntrl0.sequencer-pio-port::system.tsunami.ide.pio         6052                       # Packet count per connected master and slave (bytes)
system.piobus.pkt_count_system.ruby.l1_cntrl0.sequencer-pio-port::system.tsunami.ide-pciconf          284                       # Packet count per connected master and slave (bytes)
system.piobus.pkt_count_system.ruby.l1_cntrl0.sequencer-pio-port::system.tsunami.ethernet.pio          100                       # Packet count per connected master and slave (bytes)
system.piobus.pkt_count_system.ruby.l1_cntrl0.sequencer-pio-port::system.tsunami.ethernet-pciconf          196                       # Packet count per connected master and slave (bytes)
system.piobus.pkt_count_system.ruby.l1_cntrl0.sequencer-pio-port::system.tsunami.pciconfig.pio           60                       # Packet count per connected master and slave (bytes)
system.piobus.pkt_count_system.ruby.l1_cntrl0.sequencer-pio-port::total        34362                       # Packet count per connected master and slave (bytes)
system.piobus.tot_pkt_size_system.ruby.l1_cntrl0.sequencer-pio-port::system.tsunami.cchip.pio        22048                       # Cumulative packet size per connected master and slave (bytes)
system.piobus.tot_pkt_size_system.ruby.l1_cntrl0.sequencer-pio-port::system.tsunami.pchip.pio         1296                       # Cumulative packet size per connected master and slave (bytes)
system.piobus.tot_pkt_size_system.ruby.l1_cntrl0.sequencer-pio-port::system.tsunami.fake_sm_chip.pio           10                       # Cumulative packet size per connected master and slave (bytes)
system.piobus.tot_pkt_size_system.ruby.l1_cntrl0.sequencer-pio-port::system.tsunami.fake_uart4.pio           10                       # Cumulative packet size per connected master and slave (bytes)
system.piobus.tot_pkt_size_system.ruby.l1_cntrl0.sequencer-pio-port::system.tsunami.fake_ata0.pio           11                       # Cumulative packet size per connected master and slave (bytes)
system.piobus.tot_pkt_size_system.ruby.l1_cntrl0.sequencer-pio-port::system.tsunami.fake_ata1.pio           11                       # Cumulative packet size per connected master and slave (bytes)
system.piobus.tot_pkt_size_system.ruby.l1_cntrl0.sequencer-pio-port::system.tsunami.io.pio          202                       # Cumulative packet size per connected master and slave (bytes)
system.piobus.tot_pkt_size_system.ruby.l1_cntrl0.sequencer-pio-port::system.tsunami.uart.pio         9816                       # Cumulative packet size per connected master and slave (bytes)
system.piobus.tot_pkt_size_system.ruby.l1_cntrl0.sequencer-pio-port::system.tsunami.backdoor.pio         7620                       # Cumulative packet size per connected master and slave (bytes)
system.piobus.tot_pkt_size_system.ruby.l1_cntrl0.sequencer-pio-port::system.tsunami.ide.pio         3829                       # Cumulative packet size per connected master and slave (bytes)
system.piobus.tot_pkt_size_system.ruby.l1_cntrl0.sequencer-pio-port::system.tsunami.ide-pciconf          400                       # Cumulative packet size per connected master and slave (bytes)
system.piobus.tot_pkt_size_system.ruby.l1_cntrl0.sequencer-pio-port::system.tsunami.ethernet.pio          200                       # Cumulative packet size per connected master and slave (bytes)
system.piobus.tot_pkt_size_system.ruby.l1_cntrl0.sequencer-pio-port::system.tsunami.ethernet-pciconf          311                       # Cumulative packet size per connected master and slave (bytes)
system.piobus.tot_pkt_size_system.ruby.l1_cntrl0.sequencer-pio-port::system.tsunami.pciconfig.pio          120                       # Cumulative packet size per connected master and slave (bytes)
system.piobus.tot_pkt_size_system.ruby.l1_cntrl0.sequencer-pio-port::total        45884                       # Cumulative packet size per connected master and slave (bytes)
system.piobus.data_through_bus                  45884                       # Total data (bytes)
system.piobus.reqLayer0.occupancy             6082000                       # Layer occupancy (ticks)
system.piobus.reqLayer0.utilization               0.0                       # Layer utilization (%)
system.piobus.reqLayer1.occupancy              279000                       # Layer occupancy (ticks)
system.piobus.reqLayer1.utilization               0.0                       # Layer utilization (%)
system.piobus.reqLayer2.occupancy               21500                       # Layer occupancy (ticks)
system.piobus.reqLayer2.utilization               0.0                       # Layer utilization (%)
system.piobus.reqLayer6.occupancy               21000                       # Layer occupancy (ticks)
system.piobus.reqLayer6.utilization               0.0                       # Layer utilization (%)
system.piobus.reqLayer19.occupancy              19500                       # Layer occupancy (ticks)
system.piobus.reqLayer19.utilization              0.0                       # Layer utilization (%)
system.piobus.reqLayer20.occupancy              20500                       # Layer occupancy (ticks)
system.piobus.reqLayer20.utilization              0.0                       # Layer utilization (%)
system.piobus.reqLayer22.occupancy             207500                       # Layer occupancy (ticks)
system.piobus.reqLayer22.utilization              0.0                       # Layer utilization (%)
system.piobus.reqLayer23.occupancy           17038500                       # Layer occupancy (ticks)
system.piobus.reqLayer23.utilization              0.0                       # Layer utilization (%)
system.piobus.reqLayer24.occupancy            2146500                       # Layer occupancy (ticks)
system.piobus.reqLayer24.utilization              0.0                       # Layer utilization (%)
system.piobus.reqLayer25.occupancy            5199500                       # Layer occupancy (ticks)
system.piobus.reqLayer25.utilization              0.0                       # Layer utilization (%)
system.piobus.reqLayer26.occupancy             212500                       # Layer occupancy (ticks)
system.piobus.reqLayer26.utilization              0.0                       # Layer utilization (%)
system.piobus.reqLayer27.occupancy              84500                       # Layer occupancy (ticks)
system.piobus.reqLayer27.utilization              0.0                       # Layer utilization (%)
system.piobus.reqLayer28.occupancy             142500                       # Layer occupancy (ticks)
system.piobus.reqLayer28.utilization              0.0                       # Layer utilization (%)
system.piobus.reqLayer30.occupancy              30500                       # Layer occupancy (ticks)
system.piobus.reqLayer30.utilization              0.0                       # Layer utilization (%)
system.piobus.respLayer0.occupancy           28276500                       # Layer occupancy (ticks)
system.piobus.respLayer0.utilization              0.0                       # Layer utilization (%)
system.ruby.l1_cntrl0.cacheMemory.demand_hits     66740857                       # Number of cache demand hits
system.ruby.l1_cntrl0.cacheMemory.demand_misses      4701237                       # Number of cache demand misses
system.ruby.l1_cntrl0.cacheMemory.demand_accesses     71442094                       # Number of cache demand accesses
system.ruby.network.routers0.percent_links_utilized     0.482605                      
system.ruby.network.routers0.msg_count.Control::2      4701237                      
system.ruby.network.routers0.msg_count.Data::2      4700213                      
system.ruby.network.routers0.msg_count.Response_Data::4      4701237                      
system.ruby.network.routers0.msg_count.Writeback_Control::3      4700327                      
system.ruby.network.routers0.msg_bytes.Control::2     37609896                      
system.ruby.network.routers0.msg_bytes.Data::2    338415336                      
system.ruby.network.routers0.msg_bytes.Response_Data::4    338489064                      
system.ruby.network.routers0.msg_bytes.Writeback_Control::3     37602616                      
system.ruby.dir_cntrl0.memBuffer.memReq       9445994                       # Total number of memory requests
system.ruby.dir_cntrl0.memBuffer.memRead      4701347                       # Number of memory reads
system.ruby.dir_cntrl0.memBuffer.memWrite      4744647                       # Number of memory writes
system.ruby.dir_cntrl0.memBuffer.memRefresh      3237438                       # Number of memory refreshes
system.ruby.dir_cntrl0.memBuffer.memWaitCycles     49069622                       # Delay stalled at the head of the bank queue
system.ruby.dir_cntrl0.memBuffer.memInputQ       426595                       # Delay in the input queue
system.ruby.dir_cntrl0.memBuffer.memBankQ      5733803                       # Delay behind the head of the bank queue
system.ruby.dir_cntrl0.memBuffer.totalStalls     55230020                       # Total number of stall cycles
system.ruby.dir_cntrl0.memBuffer.stallsPerReq     5.846925                       # Expected number of stall cycles per request
system.ruby.dir_cntrl0.memBuffer.memBankBusy     48186265                       # memory stalls due to busy bank
system.ruby.dir_cntrl0.memBuffer.memBusBusy       411818                       # memory stalls due to busy bus
system.ruby.dir_cntrl0.memBuffer.memReadWriteBusy       142091                       # memory stalls due to read write turnaround
system.ruby.dir_cntrl0.memBuffer.memDataBusBusy       192886                       # memory stalls due to read read turnaround
system.ruby.dir_cntrl0.memBuffer.memArbWait       136307                       # memory stalls due to arbitration
system.ruby.dir_cntrl0.memBuffer.memNotOld          255                       # memory stalls due to anti starvation
system.ruby.dir_cntrl0.memBuffer.memBankCount |      241419      2.56%      2.56% |      220696      2.34%      4.89% |      253661      2.69%      7.58% |      256060      2.71%     10.29% |      294832      3.12%     13.41% |      300709      3.18%     16.59% |      306289      3.24%     19.84% |      285636      3.02%     22.86% |      312920      3.31%     26.17% |      249146      2.64%     28.81% |      277822      2.94%     31.75% |      284030      3.01%     34.76% |      292172      3.09%     37.85% |      319247      3.38%     41.23% |      295490      3.13%     44.36% |      342546      3.63%     47.99% |      455314      4.82%     52.81% |      404430      4.28%     57.09% |      315302      3.34%     60.42% |      343128      3.63%     64.06% |      299416      3.17%     67.23% |      266092      2.82%     70.04% |      256376      2.71%     72.76% |      208248      2.20%     74.96% |      284577      3.01%     77.98% |      341652      3.62%     81.59% |      322925      3.42%     85.01% |      291222      3.08%     88.09% |      344306      3.64%     91.74% |      250206      2.65%     94.39% |      262271      2.78%     97.16% |      267854      2.84%    100.00% # Number of accesses per bank
system.ruby.dir_cntrl0.memBuffer.memBankCount::total      9445994                       # Number of accesses per bank

system.ruby.network.routers1.percent_links_utilized     0.483072                      
system.ruby.network.routers1.msg_count.Control::2      4701237                      
system.ruby.network.routers1.msg_count.Data::2      4700213                      
system.ruby.network.routers1.msg_count.Response_Data::1          210                      
system.ruby.network.routers1.msg_count.Response_Data::4      4701237                      
system.ruby.network.routers1.msg_count.Writeback_Control::0        44658                      
system.ruby.network.routers1.msg_count.Writeback_Control::1        44448                      
system.ruby.network.routers1.msg_count.Writeback_Control::3      4700327                      
system.ruby.network.routers1.msg_bytes.Control::2     37609896                      
system.ruby.network.routers1.msg_bytes.Data::2    338415336                      
system.ruby.network.routers1.msg_bytes.Response_Data::1        15120                      
system.ruby.network.routers1.msg_bytes.Response_Data::4    338489064                      
system.ruby.network.routers1.msg_bytes.Writeback_Control::0       357264                      
system.ruby.network.routers1.msg_bytes.Writeback_Control::1       355584                      
system.ruby.network.routers1.msg_bytes.Writeback_Control::3     37602616                      
system.ruby.network.routers2.percent_links_utilized     0.000467                      
system.ruby.network.routers2.msg_count.Response_Data::1          210                      
system.ruby.network.routers2.msg_count.Writeback_Control::0        44658                      
system.ruby.network.routers2.msg_count.Writeback_Control::1        44448                      
system.ruby.network.routers2.msg_bytes.Response_Data::1        15120                      
system.ruby.network.routers2.msg_bytes.Writeback_Control::0       357264                      
system.ruby.network.routers2.msg_bytes.Writeback_Control::1       355584                      
system.ruby.network.routers3.percent_links_utilized            0                      
system.ruby.network.routers4.percent_links_utilized     0.241536                      
system.ruby.network.routers4.msg_count.Control::2      4701237                      
system.ruby.network.routers4.msg_count.Data::2      4700213                      
system.ruby.network.routers4.msg_count.Response_Data::1          210                      
system.ruby.network.routers4.msg_count.Response_Data::4      4701237                      
system.ruby.network.routers4.msg_count.Writeback_Control::0        44658                      
system.ruby.network.routers4.msg_count.Writeback_Control::1        44448                      
system.ruby.network.routers4.msg_count.Writeback_Control::3      4700327                      
system.ruby.network.routers4.msg_bytes.Control::2     37609896                      
system.ruby.network.routers4.msg_bytes.Data::2    338415336                      
system.ruby.network.routers4.msg_bytes.Response_Data::1        15120                      
system.ruby.network.routers4.msg_bytes.Response_Data::4    338489064                      
system.ruby.network.routers4.msg_bytes.Writeback_Control::0       357264                      
system.ruby.network.routers4.msg_bytes.Writeback_Control::1       355584                      
system.ruby.network.routers4.msg_bytes.Writeback_Control::3     37602616                      
system.ruby.network.msg_count.Control        14103711                      
system.ruby.network.msg_count.Data           14100639                      
system.ruby.network.msg_count.Response_Data     14104341                      
system.ruby.network.msg_count.Writeback_Control     14368299                      
system.ruby.network.msg_byte.Control        112829688                      
system.ruby.network.msg_byte.Data          1015246008                      
system.ruby.network.msg_byte.Response_Data   1015512552                      
system.ruby.network.msg_byte.Writeback_Control    114946392                      
system.disk2.dma_read_full_pages                    0                       # Number of full page size DMA reads (not PRD).
system.disk2.dma_read_bytes                         0                       # Number of bytes transfered via DMA reads (not PRD).
system.disk2.dma_read_txs                           0                       # Number of DMA read transactions (not PRD).
system.disk2.dma_write_full_pages                   1                       # Number of full page size DMA writes.
system.disk2.dma_write_bytes                     8192                       # Number of bytes transfered via DMA writes.
system.disk2.dma_write_txs                          1                       # Number of DMA write transactions.
system.disk0.dma_read_full_pages                    0                       # Number of full page size DMA reads (not PRD).
system.disk0.dma_read_bytes                      4096                       # Number of bytes transfered via DMA reads (not PRD).
system.disk0.dma_read_txs                           1                       # Number of DMA read transactions (not PRD).
system.disk0.dma_write_full_pages                 326                       # Number of full page size DMA writes.
system.disk0.dma_write_bytes                  2836480                       # Number of bytes transfered via DMA writes.
system.disk0.dma_write_txs                        368                       # Number of DMA write transactions.
system.cpu.branchPred.lookups                44568553                       # Number of BP lookups
system.cpu.branchPred.condPredicted          34281609                       # Number of conditional branches predicted
system.cpu.branchPred.condIncorrect            657850                       # Number of conditional branches incorrect
system.cpu.branchPred.BTBLookups             29138564                       # Number of BTB lookups
system.cpu.branchPred.BTBHits                21572030                       # Number of BTB hits
system.cpu.branchPred.BTBCorrect                    0                       # Number of correct BTB predictions (this stat may not work properly.
system.cpu.branchPred.BTBHitPct             74.032578                       # BTB Hit Percentage
system.cpu.branchPred.usedRAS                 4232208                       # Number of times the RAS was used to get a target.
system.cpu.branchPred.RASInCorrect              76593                       # Number of incorrect RAS predictions.
system.cpu.dtb.fetch_hits                           0                       # ITB hits
system.cpu.dtb.fetch_misses                         0                       # ITB misses
system.cpu.dtb.fetch_acv                            0                       # ITB acv
system.cpu.dtb.fetch_accesses                       0                       # ITB accesses
system.cpu.dtb.read_hits                     40151968                       # DTB read hits
system.cpu.dtb.read_misses                      60838                       # DTB read misses
system.cpu.dtb.read_acv                           233                       # DTB read access violations
system.cpu.dtb.read_accesses                  1917790                       # DTB read accesses
system.cpu.dtb.write_hits                    10065272                       # DTB write hits
system.cpu.dtb.write_misses                      9609                       # DTB write misses
system.cpu.dtb.write_acv                          596                       # DTB write access violations
system.cpu.dtb.write_accesses                  402021                       # DTB write accesses
system.cpu.dtb.data_hits                     50217240                       # DTB hits
system.cpu.dtb.data_misses                      70447                       # DTB misses
system.cpu.dtb.data_acv                           829                       # DTB access violations
system.cpu.dtb.data_accesses                  2319811                       # DTB accesses
system.cpu.itb.fetch_hits                     3064479                       # ITB hits
system.cpu.itb.fetch_misses                     43235                       # ITB misses
system.cpu.itb.fetch_acv                         3914                       # ITB acv
system.cpu.itb.fetch_accesses                 3107714                       # ITB accesses
system.cpu.itb.read_hits                            0                       # DTB read hits
system.cpu.itb.read_misses                          0                       # DTB read misses
system.cpu.itb.read_acv                             0                       # DTB read access violations
system.cpu.itb.read_accesses                        0                       # DTB read accesses
system.cpu.itb.write_hits                           0                       # DTB write hits
system.cpu.itb.write_misses                         0                       # DTB write misses
system.cpu.itb.write_acv                            0                       # DTB write access violations
system.cpu.itb.write_accesses                       0                       # DTB write accesses
system.cpu.itb.data_hits                            0                       # DTB hits
system.cpu.itb.data_misses                          0                       # DTB misses
system.cpu.itb.data_acv                             0                       # DTB access violations
system.cpu.itb.data_accesses                        0                       # DTB accesses
system.cpu.numCycles                        467026168                       # number of cpu cycles simulated
system.cpu.numWorkItemsStarted                      0                       # number of work items this cpu started
system.cpu.numWorkItemsCompleted                    0                       # number of work items this cpu completed
system.cpu.fetch.icacheStallCycles          150211469                       # Number of cycles fetch is stalled on an Icache miss
system.cpu.fetch.Insts                      261868678                       # Number of instructions fetch has processed
system.cpu.fetch.Branches                    44568553                       # Number of branches that fetch encountered
system.cpu.fetch.predictedBranches           25804238                       # Number of branches that fetch has predicted taken
system.cpu.fetch.Cycles                      52142480                       # Number of cycles fetch has run and was not squashing or blocked
system.cpu.fetch.SquashCycles                26998802                       # Number of cycles fetch has spent squashing
system.cpu.fetch.BlockedCycles               75227144                       # Number of cycles fetch has spent blocked
system.cpu.fetch.MiscStallCycles              4457652                       # Number of cycles fetch has spent waiting on interrupts, or bad addresses, or out of MSHRs
system.cpu.fetch.PendingTrapStallCycles        383534                       # Number of stall cycles due to pending traps
system.cpu.fetch.PendingQuiesceStallCycles       330523                       # Number of stall cycles due to pending quiesce instructions
system.cpu.fetch.IcacheWaitRetryStallCycles      8584221                       # Number of stall cycles due to full MSHR
system.cpu.fetch.CacheLines                  44848720                       # Number of cache lines fetched
system.cpu.fetch.IcacheSquashes               9067079                       # Number of outstanding Icache misses that were squashed
system.cpu.fetch.rateDist::samples          307790471                       # Number of instructions fetched each cycle (Total)
system.cpu.fetch.rateDist::mean              0.850802                       # Number of instructions fetched each cycle (Total)
system.cpu.fetch.rateDist::stdev             2.164479                       # Number of instructions fetched each cycle (Total)
system.cpu.fetch.rateDist::underflows               0      0.00%      0.00% # Number of instructions fetched each cycle (Total)
system.cpu.fetch.rateDist::0                255647991     83.06%     83.06% # Number of instructions fetched each cycle (Total)
system.cpu.fetch.rateDist::1                  5796844      1.88%     84.94% # Number of instructions fetched each cycle (Total)
system.cpu.fetch.rateDist::2                  6958559      2.26%     87.20% # Number of instructions fetched each cycle (Total)
system.cpu.fetch.rateDist::3                  3963173      1.29%     88.49% # Number of instructions fetched each cycle (Total)
system.cpu.fetch.rateDist::4                  8526212      2.77%     91.26% # Number of instructions fetched each cycle (Total)
system.cpu.fetch.rateDist::5                  2025325      0.66%     91.92% # Number of instructions fetched each cycle (Total)
system.cpu.fetch.rateDist::6                  5391219      1.75%     93.67% # Number of instructions fetched each cycle (Total)
system.cpu.fetch.rateDist::7                  2162774      0.70%     94.37% # Number of instructions fetched each cycle (Total)
system.cpu.fetch.rateDist::8                 17318374      5.63%    100.00% # Number of instructions fetched each cycle (Total)
system.cpu.fetch.rateDist::overflows                0      0.00%    100.00% # Number of instructions fetched each cycle (Total)
system.cpu.fetch.rateDist::min_value                0                       # Number of instructions fetched each cycle (Total)
system.cpu.fetch.rateDist::max_value                8                       # Number of instructions fetched each cycle (Total)
system.cpu.fetch.rateDist::total            307790471                       # Number of instructions fetched each cycle (Total)
system.cpu.fetch.branchRate                  0.095431                       # Number of branch fetches per cycle
system.cpu.fetch.rate                        0.560715                       # Number of inst fetches per cycle
system.cpu.decode.IdleCycles                163872511                       # Number of cycles decode is idle
system.cpu.decode.BlockedCycles              76469301                       # Number of cycles decode is blocked
system.cpu.decode.RunCycles                  49343614                       # Number of cycles decode is running
system.cpu.decode.UnblockCycles               1728671                       # Number of cycles decode is unblocking
system.cpu.decode.SquashCycles               16376373                       # Number of cycles decode is squashing
system.cpu.decode.BranchResolved              1622913                       # Number of times decode resolved a branch
system.cpu.decode.BranchMispred                 82841                       # Number of times decode detected a branch misprediction
system.cpu.decode.DecodedInsts              255710146                       # Number of instructions handled by decode
system.cpu.decode.SquashedInsts                208196                       # Number of squashed instructions handled by decode
system.cpu.rename.SquashCycles               16376373                       # Number of cycles rename is squashing
system.cpu.rename.IdleCycles                171449831                       # Number of cycles rename is idle
system.cpu.rename.BlockCycles                28518087                       # Number of cycles rename is blocking
system.cpu.rename.serializeStallCycles       39179912                       # count of cycles rename stalled for serializing inst
system.cpu.rename.RunCycles                  44536476                       # Number of cycles rename is running
system.cpu.rename.UnblockCycles               7729790                       # Number of cycles rename is unblocking
system.cpu.rename.RenamedInsts              222681427                       # Number of instructions processed by rename
system.cpu.rename.ROBFullEvents                 39927                       # Number of times rename has blocked due to ROB full
system.cpu.rename.IQFullEvents                2421988                       # Number of times rename has blocked due to IQ full
system.cpu.rename.LSQFullEvents               3365403                       # Number of times rename has blocked due to LSQ full
system.cpu.rename.RenamedOperands           166395255                       # Number of destination operands rename has renamed
system.cpu.rename.RenameLookups             279857224                       # Number of register rename lookups that rename has made
system.cpu.rename.int_rename_lookups        279638249                       # Number of integer rename lookups
system.cpu.rename.fp_rename_lookups            204745                       # Number of floating rename lookups
system.cpu.rename.CommittedMaps              71416362                       # Number of HB maps that are committed
system.cpu.rename.UndoneMaps                 94978891                       # Number of HB maps that are undone due to squashing
system.cpu.rename.serializingInsts            2243269                       # count of serializing insts renamed
system.cpu.rename.tempSerializingInsts         526401                       # count of temporary serializing insts renamed
system.cpu.rename.skidInsts                  16541875                       # count of insts added to the skid buffer
system.cpu.memDep0.insertedLoads             45712904                       # Number of loads inserted to the mem dependence unit.
system.cpu.memDep0.insertedStores            14399202                       # Number of stores inserted to the mem dependence unit.
system.cpu.memDep0.conflictingLoads           1727061                       # Number of conflicting loads.
system.cpu.memDep0.conflictingStores           807986                       # Number of conflicting stores.
system.cpu.iq.iqInstsAdded                  178540633                       # Number of instructions added to the IQ (excludes non-spec)
system.cpu.iq.iqNonSpecInstsAdded             3224570                       # Number of non-speculative instructions added to the IQ
system.cpu.iq.iqInstsIssued                 141075996                       # Number of instructions issued
system.cpu.iq.iqSquashedInstsIssued            114687                       # Number of squashed instructions issued
system.cpu.iq.iqSquashedInstsExamined        85214962                       # Number of squashed instructions iterated over during squash; mainly for profiling
system.cpu.iq.iqSquashedOperandsExamined     77915883                       # Number of squashed operands that are examined and possibly removed from graph
system.cpu.iq.iqSquashedNonSpecRemoved        2076140                       # Number of squashed non-spec instructions that were removed
system.cpu.iq.issued_per_cycle::samples     307790471                       # Number of insts issued each cycle
system.cpu.iq.issued_per_cycle::mean         0.458351                       # Number of insts issued each cycle
system.cpu.iq.issued_per_cycle::stdev        1.066690                       # Number of insts issued each cycle
system.cpu.iq.issued_per_cycle::underflows            0      0.00%      0.00% # Number of insts issued each cycle
system.cpu.iq.issued_per_cycle::0           238730736     77.56%     77.56% # Number of insts issued each cycle
system.cpu.iq.issued_per_cycle::1            34653490     11.26%     88.82% # Number of insts issued each cycle
system.cpu.iq.issued_per_cycle::2            14039342      4.56%     93.38% # Number of insts issued each cycle
system.cpu.iq.issued_per_cycle::3            10263902      3.33%     96.72% # Number of insts issued each cycle
system.cpu.iq.issued_per_cycle::4             5438905      1.77%     98.48% # Number of insts issued each cycle
system.cpu.iq.issued_per_cycle::5             2559763      0.83%     99.32% # Number of insts issued each cycle
system.cpu.iq.issued_per_cycle::6             1774850      0.58%     99.89% # Number of insts issued each cycle
system.cpu.iq.issued_per_cycle::7              287283      0.09%     99.99% # Number of insts issued each cycle
system.cpu.iq.issued_per_cycle::8               42200      0.01%    100.00% # Number of insts issued each cycle
system.cpu.iq.issued_per_cycle::overflows            0      0.00%    100.00% # Number of insts issued each cycle
system.cpu.iq.issued_per_cycle::min_value            0                       # Number of insts issued each cycle
system.cpu.iq.issued_per_cycle::max_value            8                       # Number of insts issued each cycle
system.cpu.iq.issued_per_cycle::total       307790471                       # Number of insts issued each cycle
system.cpu.iq.fu_full::No_OpClass                   0      0.00%      0.00% # attempts to use FU when none available
system.cpu.iq.fu_full::IntAlu                   27784      1.26%      1.26% # attempts to use FU when none available
system.cpu.iq.fu_full::IntMult                      1      0.00%      1.26% # attempts to use FU when none available
system.cpu.iq.fu_full::IntDiv                       0      0.00%      1.26% # attempts to use FU when none available
system.cpu.iq.fu_full::FloatAdd                     0      0.00%      1.26% # attempts to use FU when none available
system.cpu.iq.fu_full::FloatCmp                     0      0.00%      1.26% # attempts to use FU when none available
system.cpu.iq.fu_full::FloatCvt                     0      0.00%      1.26% # attempts to use FU when none available
system.cpu.iq.fu_full::FloatMult                    0      0.00%      1.26% # attempts to use FU when none available
system.cpu.iq.fu_full::FloatDiv                     0      0.00%      1.26% # attempts to use FU when none available
system.cpu.iq.fu_full::FloatSqrt                    0      0.00%      1.26% # attempts to use FU when none available
system.cpu.iq.fu_full::SimdAdd                      0      0.00%      1.26% # attempts to use FU when none available
system.cpu.iq.fu_full::SimdAddAcc                   0      0.00%      1.26% # attempts to use FU when none available
system.cpu.iq.fu_full::SimdAlu                      0      0.00%      1.26% # attempts to use FU when none available
system.cpu.iq.fu_full::SimdCmp                      0      0.00%      1.26% # attempts to use FU when none available
system.cpu.iq.fu_full::SimdCvt                      0      0.00%      1.26% # attempts to use FU when none available
system.cpu.iq.fu_full::SimdMisc                     0      0.00%      1.26% # attempts to use FU when none available
system.cpu.iq.fu_full::SimdMult                     0      0.00%      1.26% # attempts to use FU when none available
system.cpu.iq.fu_full::SimdMultAcc                  0      0.00%      1.26% # attempts to use FU when none available
system.cpu.iq.fu_full::SimdShift                    0      0.00%      1.26% # attempts to use FU when none available
system.cpu.iq.fu_full::SimdShiftAcc                 0      0.00%      1.26% # attempts to use FU when none available
system.cpu.iq.fu_full::SimdSqrt                     0      0.00%      1.26% # attempts to use FU when none available
system.cpu.iq.fu_full::SimdFloatAdd                 0      0.00%      1.26% # attempts to use FU when none available
system.cpu.iq.fu_full::SimdFloatAlu                 0      0.00%      1.26% # attempts to use FU when none available
system.cpu.iq.fu_full::SimdFloatCmp                 0      0.00%      1.26% # attempts to use FU when none available
system.cpu.iq.fu_full::SimdFloatCvt                 0      0.00%      1.26% # attempts to use FU when none available
system.cpu.iq.fu_full::SimdFloatDiv                 0      0.00%      1.26% # attempts to use FU when none available
system.cpu.iq.fu_full::SimdFloatMisc                0      0.00%      1.26% # attempts to use FU when none available
system.cpu.iq.fu_full::SimdFloatMult                0      0.00%      1.26% # attempts to use FU when none available
system.cpu.iq.fu_full::SimdFloatMultAcc             0      0.00%      1.26% # attempts to use FU when none available
system.cpu.iq.fu_full::SimdFloatSqrt                0      0.00%      1.26% # attempts to use FU when none available
system.cpu.iq.fu_full::MemRead                1671481     75.67%     76.93% # attempts to use FU when none available
system.cpu.iq.fu_full::MemWrite                509568     23.07%    100.00% # attempts to use FU when none available
system.cpu.iq.fu_full::IprAccess                    0      0.00%    100.00% # attempts to use FU when none available
system.cpu.iq.fu_full::InstPrefetch                 0      0.00%    100.00% # attempts to use FU when none available
system.cpu.iq.FU_type_0::No_OpClass              8363      0.01%      0.01% # Type of FU issued
system.cpu.iq.FU_type_0::IntAlu              87677277     62.15%     62.15% # Type of FU issued
system.cpu.iq.FU_type_0::IntMult               205030      0.15%     62.30% # Type of FU issued
system.cpu.iq.FU_type_0::IntDiv                     0      0.00%     62.30% # Type of FU issued
system.cpu.iq.FU_type_0::FloatAdd               28949      0.02%     62.32% # Type of FU issued
system.cpu.iq.FU_type_0::FloatCmp                   0      0.00%     62.32% # Type of FU issued
system.cpu.iq.FU_type_0::FloatCvt                   0      0.00%     62.32% # Type of FU issued
system.cpu.iq.FU_type_0::FloatMult                  0      0.00%     62.32% # Type of FU issued
system.cpu.iq.FU_type_0::FloatDiv                4179      0.00%     62.32% # Type of FU issued
system.cpu.iq.FU_type_0::FloatSqrt                  0      0.00%     62.32% # Type of FU issued
system.cpu.iq.FU_type_0::SimdAdd                    0      0.00%     62.32% # Type of FU issued
system.cpu.iq.FU_type_0::SimdAddAcc                 0      0.00%     62.32% # Type of FU issued
system.cpu.iq.FU_type_0::SimdAlu                    0      0.00%     62.32% # Type of FU issued
system.cpu.iq.FU_type_0::SimdCmp                    0      0.00%     62.32% # Type of FU issued
system.cpu.iq.FU_type_0::SimdCvt                    0      0.00%     62.32% # Type of FU issued
system.cpu.iq.FU_type_0::SimdMisc                   0      0.00%     62.32% # Type of FU issued
system.cpu.iq.FU_type_0::SimdMult                   0      0.00%     62.32% # Type of FU issued
system.cpu.iq.FU_type_0::SimdMultAcc                0      0.00%     62.32% # Type of FU issued
system.cpu.iq.FU_type_0::SimdShift                  0      0.00%     62.32% # Type of FU issued
system.cpu.iq.FU_type_0::SimdShiftAcc               0      0.00%     62.32% # Type of FU issued
system.cpu.iq.FU_type_0::SimdSqrt                   0      0.00%     62.32% # Type of FU issued
system.cpu.iq.FU_type_0::SimdFloatAdd               0      0.00%     62.32% # Type of FU issued
system.cpu.iq.FU_type_0::SimdFloatAlu               0      0.00%     62.32% # Type of FU issued
system.cpu.iq.FU_type_0::SimdFloatCmp               0      0.00%     62.32% # Type of FU issued
system.cpu.iq.FU_type_0::SimdFloatCvt               0      0.00%     62.32% # Type of FU issued
system.cpu.iq.FU_type_0::SimdFloatDiv               0      0.00%     62.32% # Type of FU issued
system.cpu.iq.FU_type_0::SimdFloatMisc              0      0.00%     62.32% # Type of FU issued
system.cpu.iq.FU_type_0::SimdFloatMult              0      0.00%     62.32% # Type of FU issued
system.cpu.iq.FU_type_0::SimdFloatMultAcc            0      0.00%     62.32% # Type of FU issued
system.cpu.iq.FU_type_0::SimdFloatSqrt              0      0.00%     62.32% # Type of FU issued
system.cpu.iq.FU_type_0::MemRead             41766522     29.61%     91.93% # Type of FU issued
system.cpu.iq.FU_type_0::MemWrite            10308338      7.31%     99.24% # Type of FU issued
system.cpu.iq.FU_type_0::IprAccess            1077338      0.76%    100.00% # Type of FU issued
system.cpu.iq.FU_type_0::InstPrefetch               0      0.00%    100.00% # Type of FU issued
system.cpu.iq.FU_type_0::total              141075996                       # Type of FU issued
system.cpu.iq.rate                           0.302073                       # Inst issue rate
system.cpu.iq.fu_busy_cnt                     2208834                       # FU busy when requested
system.cpu.iq.fu_busy_rate                   0.015657                       # FU busy rate (busy events/executed inst)
system.cpu.iq.int_inst_queue_reads          589245017                       # Number of integer instruction queue reads
system.cpu.iq.int_inst_queue_writes         264559420                       # Number of integer instruction queue writes
system.cpu.iq.int_inst_queue_wakeup_accesses    116257432                       # Number of integer instruction queue wakeup accesses
system.cpu.iq.fp_inst_queue_reads             3020967                       # Number of floating instruction queue reads
system.cpu.iq.fp_inst_queue_writes            2429355                       # Number of floating instruction queue writes
system.cpu.iq.fp_inst_queue_wakeup_accesses       451198                       # Number of floating instruction queue wakeup accesses
system.cpu.iq.int_alu_accesses              141685252                       # Number of integer alu accesses
system.cpu.iq.fp_alu_accesses                 1591215                       # Number of floating point alu accesses
InstQueueB1                                 235910698                       # Number of cycles in B1 of Inst Queue
InstQueueB2                                  29955748                       # Number of cycles in B2 of Inst Queue
InstQueueB3                                  11092958                       # Number of cycles in B3 of Inst Queue
InstQueueB4                                  30831067                       # Number of cycles in B4 of Inst Queue
LoadQueueB1                                 248024510                       # Number of cycles in B1 of Load Queue
LoadQueueB2                                  29595378                       # Number of cycles in B1 of Load Queue
LoadQueueB3                                  27582269                       # Number of cycles in B1 of Load Queue
LoadQueueB4                                   2588314                       # Number of cycles in B1 of Load Queue
StoreQueueB1                                280641068                       # Number of cycles in B1 of Store Queue
StoreQueueB2                                 11848361                       # Number of cycles in B1 of Store Queue
StoreQueueB3                                  2806138                       # Number of cycles in B1 of Store Queue
StoreQueueB4                                 12494904                       # Number of cycles in B1 of Store Queue
system.cpu.iew.lsq.thread0.forwLoads           719176                       # Number of loads that had data forwarded from stores
system.cpu.iew.lsq.thread0.invAddrLoads             0                       # Number of loads ignored due to an invalid address
system.cpu.iew.lsq.thread0.squashedLoads     28656935                       # Number of loads squashed
system.cpu.iew.lsq.thread0.ignoredResponses        24997                       # Number of memory responses ignored because the instruction is squashed
system.cpu.iew.lsq.thread0.memOrderViolation         8744                       # Number of memory ordering violations
system.cpu.iew.lsq.thread0.squashedStores      5454058                       # Number of stores squashed
system.cpu.iew.lsq.thread0.invAddrSwpfs             0                       # Number of software prefetches ignored due to an invalid address
system.cpu.iew.lsq.thread0.blockedLoads             0                       # Number of blocked loads due to partial load-store forwarding
system.cpu.iew.lsq.thread0.rescheduledLoads        22469                       # Number of loads that were rescheduled
system.cpu.iew.lsq.thread0.cacheBlocked      31075237                       # Number of times an access to memory failed due to the cache being blocked
system.cpu.iew.iewIdleCycles                        0                       # Number of cycles IEW is idle
system.cpu.iew.iewSquashCycles               16376373                       # Number of cycles IEW is squashing
system.cpu.iew.iewBlockCycles                19021421                       # Number of cycles IEW is blocking
system.cpu.iew.iewUnblockCycles               1339277                       # Number of cycles IEW is unblocking
system.cpu.iew.iewDispatchedInsts           184062700                       # Number of instructions dispatched to IQ
system.cpu.iew.iewDispSquashedInsts          32408235                       # Number of squashed instructions skipped by dispatch
system.cpu.iew.iewDispLoadInsts              45712904                       # Number of dispatched load instructions
system.cpu.iew.iewDispStoreInsts             14399202                       # Number of dispatched store instructions
system.cpu.iew.iewDispNonSpecInsts            2610588                       # Number of dispatched non-speculative instructions
system.cpu.iew.iewIQFullEvents                  85912                       # Number of times the IQ has become full, causing a stall
system.cpu.iew.iewLSQFullEvents                  3907                       # Number of times the LSQ has become full, causing a stall
system.cpu.iew.memOrderViolationEvents           8744                       # Number of memory order violations
system.cpu.iew.predictedTakenIncorrect         304387                       # Number of branches that were predicted taken incorrectly
system.cpu.iew.predictedNotTakenIncorrect       551974                       # Number of branches that were predicted not taken incorrectly
system.cpu.iew.branchMispredicts               856361                       # Number of branch mispredicts detected at execute
system.cpu.iew.iewExecutedInsts             138670950                       # Number of executed instructions
system.cpu.iew.iewExecLoadInsts              40243406                       # Number of load instructions executed
system.cpu.iew.iewExecSquashedInsts           2405046                       # Number of squashed instructions skipped in execute
system.cpu.iew.exec_swp                             0                       # number of swp insts executed
system.cpu.iew.exec_nop                       2297497                       # number of nop insts executed
system.cpu.iew.exec_refs                     50335481                       # number of memory reference insts executed
system.cpu.iew.exec_branches                 19229229                       # Number of branches executed
system.cpu.iew.exec_stores                   10092075                       # Number of stores executed
system.cpu.iew.exec_rate                     0.296923                       # Inst execution rate
system.cpu.iew.wb_sent                      116866628                       # cumulative count of insts sent to commit
system.cpu.iew.wb_count                     116708630                       # cumulative count of insts written-back
system.cpu.iew.wb_producers                  55211278                       # num instructions producing a value
system.cpu.iew.wb_consumers                  72297292                       # num instructions consuming a value
system.cpu.iew.wb_penalized                         0                       # number of instrctions required to write to 'other' IQ
system.cpu.iew.wb_rate                       0.249897                       # insts written-back per cycle
system.cpu.iew.wb_fanout                     0.763670                       # average fanout of values written-back
system.cpu.iew.wb_penalized_rate                    0                       # fraction of instructions written-back that wrote to 'other' IQ
system.cpu.commit.commitSquashedInsts        86404473                       # The number of squashed insts skipped by commit
system.cpu.commit.commitNonSpecStalls         1148430                       # The number of times commit has been forced to stall to communicate backwards
system.cpu.commit.branchMispredicts            816746                       # The number of times a branch was mispredicted
system.cpu.commit.committed_per_cycle::samples    291414098                       # Number of insts commited each cycle
system.cpu.commit.committed_per_cycle::mean     0.334702                       # Number of insts commited each cycle
system.cpu.commit.committed_per_cycle::stdev     1.074348                       # Number of insts commited each cycle
system.cpu.commit.committed_per_cycle::underflows            0      0.00%      0.00% # Number of insts commited each cycle
system.cpu.commit.committed_per_cycle::0    246269184     84.51%     84.51% # Number of insts commited each cycle
system.cpu.commit.committed_per_cycle::1     25264748      8.67%     93.18% # Number of insts commited each cycle
system.cpu.commit.committed_per_cycle::2      8512466      2.92%     96.10% # Number of insts commited each cycle
system.cpu.commit.committed_per_cycle::3      4159654      1.43%     97.53% # Number of insts commited each cycle
system.cpu.commit.committed_per_cycle::4      1737662      0.60%     98.12% # Number of insts commited each cycle
system.cpu.commit.committed_per_cycle::5      2092348      0.72%     98.84% # Number of insts commited each cycle
system.cpu.commit.committed_per_cycle::6       486832      0.17%     99.01% # Number of insts commited each cycle
system.cpu.commit.committed_per_cycle::7       694885      0.24%     99.25% # Number of insts commited each cycle
system.cpu.commit.committed_per_cycle::8      2196319      0.75%    100.00% # Number of insts commited each cycle
system.cpu.commit.committed_per_cycle::overflows            0      0.00%    100.00% # Number of insts commited each cycle
system.cpu.commit.committed_per_cycle::min_value            0                       # Number of insts commited each cycle
system.cpu.commit.committed_per_cycle::max_value            8                       # Number of insts commited each cycle
system.cpu.commit.committed_per_cycle::total    291414098                       # Number of insts commited each cycle
system.cpu.commit.committedInsts             97536769                       # Number of instructions committed
system.cpu.commit.committedOps               97536769                       # Number of ops (including micro ops) committed
system.cpu.commit.swp_count                         0                       # Number of s/w prefetches committed
system.cpu.commit.refs                       26001113                       # Number of memory references committed
system.cpu.commit.loads                      17055969                       # Number of loads committed
system.cpu.commit.membars                      455659                       # Number of memory barriers committed
system.cpu.commit.branches                   16206144                       # Number of branches committed
system.cpu.commit.fp_insts                     432203                       # Number of committed floating point instructions.
system.cpu.commit.int_insts                  94462679                       # Number of committed integer instructions.
system.cpu.commit.function_calls              1454591                       # Number of function calls committed.
system.cpu.commit.bw_lim_events               2196319                       # number cycles where commit BW limit reached
system.cpu.commit.bw_limited                        0                       # number of insts not committed due to BW limits
system.cpu.rob.rob_reads                    472862691                       # The number of ROB reads
system.cpu.rob.rob_writes                   384265243                       # The number of ROB writes
ROBufferB1                                  213102456                       # Number of cycles in B1 of ROB
ROBufferB2                                   49285907                       # Number of cycles in B2 of ROB
ROBufferB3                                   38664042                       # Number of cycles in B3 of ROB
ROBufferB4                                    6738066                       # Number of cycles in B4 of ROB
system.cpu.timesIdled                         2618544                       # Number of times that the entire CPU went into an idle state and unscheduled itself
system.cpu.idleCycles                       159235697                       # Total number of cycles that the CPU has spent unscheduled due to idling
system.cpu.quiesceCycles                   4403134491                       # Total number of cycles that CPU has spent quiesced or waiting for an interrupt
system.cpu.committedInsts                    95950309                       # Number of Instructions Simulated
system.cpu.committedOps                      95950309                       # Number of Ops (including micro ops) Simulated
system.cpu.committedInsts_total              95950309                       # Number of Instructions Simulated
system.cpu.cpi                               4.867375                       # CPI: Cycles Per Instruction
system.cpu.cpi_total                         4.867375                       # CPI: Total CPI of All Threads
system.cpu.ipc                               0.205450                       # IPC: Instructions Per Cycle
system.cpu.ipc_total                         0.205450                       # IPC: Total IPC of All Threads
system.cpu.int_regfile_reads                176764894                       # number of integer regfile reads
system.cpu.int_regfile_writes                88494386                       # number of integer regfile writes
system.cpu.fp_regfile_reads                    196930                       # number of floating regfile reads
system.cpu.fp_regfile_writes                   185299                       # number of floating regfile writes
system.cpu.misc_regfile_reads                10056594                       # number of misc regfile reads
system.cpu.misc_regfile_writes                1337193                       # number of misc regfile writes
system.tsunami.ethernet.descDMAReads                0                       # Number of descriptors the device read w/ DMA
system.tsunami.ethernet.descDMAWrites               0                       # Number of descriptors the device wrote w/ DMA
system.tsunami.ethernet.descDmaReadBytes            0                       # number of descriptor bytes read w/ DMA
system.tsunami.ethernet.descDmaWriteBytes            0                       # number of descriptor bytes write w/ DMA
system.tsunami.ethernet.postedSwi                   0                       # number of software interrupts posted to CPU
system.tsunami.ethernet.coalescedSwi              nan                       # average number of Swi's coalesced into each post
system.tsunami.ethernet.totalSwi                    0                       # total number of Swi written to ISR
system.tsunami.ethernet.postedRxIdle                0                       # number of rxIdle interrupts posted to CPU
system.tsunami.ethernet.coalescedRxIdle           nan                       # average number of RxIdle's coalesced into each post
system.tsunami.ethernet.totalRxIdle                 0                       # total number of RxIdle written to ISR
system.tsunami.ethernet.postedRxOk                  0                       # number of RxOk interrupts posted to CPU
system.tsunami.ethernet.coalescedRxOk             nan                       # average number of RxOk's coalesced into each post
system.tsunami.ethernet.totalRxOk                   0                       # total number of RxOk written to ISR
system.tsunami.ethernet.postedRxDesc                0                       # number of RxDesc interrupts posted to CPU
system.tsunami.ethernet.coalescedRxDesc           nan                       # average number of RxDesc's coalesced into each post
system.tsunami.ethernet.totalRxDesc                 0                       # total number of RxDesc written to ISR
system.tsunami.ethernet.postedTxOk                  0                       # number of TxOk interrupts posted to CPU
system.tsunami.ethernet.coalescedTxOk             nan                       # average number of TxOk's coalesced into each post
system.tsunami.ethernet.totalTxOk                   0                       # total number of TxOk written to ISR
system.tsunami.ethernet.postedTxIdle                0                       # number of TxIdle interrupts posted to CPU
system.tsunami.ethernet.coalescedTxIdle           nan                       # average number of TxIdle's coalesced into each post
system.tsunami.ethernet.totalTxIdle                 0                       # total number of TxIdle written to ISR
system.tsunami.ethernet.postedTxDesc                0                       # number of TxDesc interrupts posted to CPU
system.tsunami.ethernet.coalescedTxDesc           nan                       # average number of TxDesc's coalesced into each post
system.tsunami.ethernet.totalTxDesc                 0                       # total number of TxDesc written to ISR
system.tsunami.ethernet.postedRxOrn                 0                       # number of RxOrn posted to CPU
system.tsunami.ethernet.coalescedRxOrn            nan                       # average number of RxOrn's coalesced into each post
system.tsunami.ethernet.totalRxOrn                  0                       # total number of RxOrn written to ISR
system.tsunami.ethernet.coalescedTotal            nan                       # average number of interrupts coalesced into each post
system.tsunami.ethernet.postedInterrupts            0                       # number of posts to CPU
system.tsunami.ethernet.droppedPackets              0                       # number of packets dropped
system.ruby.network.routers0.throttle0.link_utilization     0.482647                      
system.ruby.network.routers0.throttle0.msg_count.Response_Data::4      4701237                      
system.ruby.network.routers0.throttle0.msg_count.Writeback_Control::3      4700327                      
system.ruby.network.routers0.throttle0.msg_bytes.Response_Data::4    338489064                      
system.ruby.network.routers0.throttle0.msg_bytes.Writeback_Control::3     37602616                      
system.ruby.network.routers0.throttle1.link_utilization     0.482562                      
system.ruby.network.routers0.throttle1.msg_count.Control::2      4701237                      
system.ruby.network.routers0.throttle1.msg_count.Data::2      4700213                      
system.ruby.network.routers0.throttle1.msg_bytes.Control::2     37609896                      
system.ruby.network.routers0.throttle1.msg_bytes.Data::2    338415336                      
system.ruby.network.routers1.throttle0.link_utilization     0.483020                      
system.ruby.network.routers1.throttle0.msg_count.Control::2      4701237                      
system.ruby.network.routers1.throttle0.msg_count.Data::2      4700213                      
system.ruby.network.routers1.throttle0.msg_count.Writeback_Control::0        44658                      
system.ruby.network.routers1.throttle0.msg_bytes.Control::2     37609896                      
system.ruby.network.routers1.throttle0.msg_bytes.Data::2    338415336                      
system.ruby.network.routers1.throttle0.msg_bytes.Writeback_Control::0       357264                      
system.ruby.network.routers1.throttle1.link_utilization     0.483123                      
system.ruby.network.routers1.throttle1.msg_count.Response_Data::1          210                      
system.ruby.network.routers1.throttle1.msg_count.Response_Data::4      4701237                      
system.ruby.network.routers1.throttle1.msg_count.Writeback_Control::1        44448                      
system.ruby.network.routers1.throttle1.msg_count.Writeback_Control::3      4700327                      
system.ruby.network.routers1.throttle1.msg_bytes.Response_Data::1        15120                      
system.ruby.network.routers1.throttle1.msg_bytes.Response_Data::4    338489064                      
system.ruby.network.routers1.throttle1.msg_bytes.Writeback_Control::1       355584                      
system.ruby.network.routers1.throttle1.msg_bytes.Writeback_Control::3     37602616                      
system.ruby.network.routers2.throttle0.link_utilization     0.000476                      
system.ruby.network.routers2.throttle0.msg_count.Response_Data::1          210                      
system.ruby.network.routers2.throttle0.msg_count.Writeback_Control::1        44448                      
system.ruby.network.routers2.throttle0.msg_bytes.Response_Data::1        15120                      
system.ruby.network.routers2.throttle0.msg_bytes.Writeback_Control::1       355584                      
system.ruby.network.routers2.throttle1.link_utilization     0.000458                      
system.ruby.network.routers2.throttle1.msg_count.Writeback_Control::0        44658                      
system.ruby.network.routers2.throttle1.msg_bytes.Writeback_Control::0       357264                      
system.ruby.network.routers3.throttle0.link_utilization            0                      
system.ruby.network.routers3.throttle1.link_utilization            0                      
system.ruby.network.routers4.throttle0.link_utilization     0.482647                      
system.ruby.network.routers4.throttle0.msg_count.Response_Data::4      4701237                      
system.ruby.network.routers4.throttle0.msg_count.Writeback_Control::3      4700327                      
system.ruby.network.routers4.throttle0.msg_bytes.Response_Data::4    338489064                      
system.ruby.network.routers4.throttle0.msg_bytes.Writeback_Control::3     37602616                      
system.ruby.network.routers4.throttle1.link_utilization     0.483020                      
system.ruby.network.routers4.throttle1.msg_count.Control::2      4701237                      
system.ruby.network.routers4.throttle1.msg_count.Data::2      4700213                      
system.ruby.network.routers4.throttle1.msg_count.Writeback_Control::0        44658                      
system.ruby.network.routers4.throttle1.msg_bytes.Control::2     37609896                      
system.ruby.network.routers4.throttle1.msg_bytes.Data::2    338415336                      
system.ruby.network.routers4.throttle1.msg_bytes.Writeback_Control::0       357264                      
system.ruby.network.routers4.throttle2.link_utilization     0.000476                      
system.ruby.network.routers4.throttle2.msg_count.Response_Data::1          210                      
system.ruby.network.routers4.throttle2.msg_count.Writeback_Control::1        44448                      
system.ruby.network.routers4.throttle2.msg_bytes.Response_Data::1        15120                      
system.ruby.network.routers4.throttle2.msg_bytes.Writeback_Control::1       355584                      
system.ruby.network.routers4.throttle3.link_utilization            0                      
system.ruby.l1_cntrl0.Load                   17753436      0.00%      0.00%
system.ruby.l1_cntrl0.Ifetch                 44394076      0.00%      0.00%
system.ruby.l1_cntrl0.Store                   9294582      0.00%      0.00%
system.ruby.l1_cntrl0.Data                    4701237      0.00%      0.00%
system.ruby.l1_cntrl0.Inv                         228      0.00%      0.00%
system.ruby.l1_cntrl0.Replacement             4700099      0.00%      0.00%
system.ruby.l1_cntrl0.Writeback_Ack           4700213      0.00%      0.00%
system.ruby.l1_cntrl0.I.Load                  2857914      0.00%      0.00%
system.ruby.l1_cntrl0.I.Ifetch                1362201      0.00%      0.00%
system.ruby.l1_cntrl0.I.Store                  481122      0.00%      0.00%
system.ruby.l1_cntrl0.M.Load                 14895522      0.00%      0.00%
system.ruby.l1_cntrl0.M.Ifetch               43031875      0.00%      0.00%
system.ruby.l1_cntrl0.M.Store                 8813460      0.00%      0.00%
system.ruby.l1_cntrl0.M.Inv                       114      0.00%      0.00%
system.ruby.l1_cntrl0.M.Replacement           4700099      0.00%      0.00%
system.ruby.l1_cntrl0.MI.Inv                      114      0.00%      0.00%
system.ruby.l1_cntrl0.MI.Writeback_Ack        4700213      0.00%      0.00%
system.ruby.l1_cntrl0.IS.Data                 4220115      0.00%      0.00%
system.ruby.l1_cntrl0.IM.Data                  481122      0.00%      0.00%
system.ruby.dma_cntrl0.ReadRequest       |         210    100.00%    100.00% |           0      0.00%    100.00%
system.ruby.dma_cntrl0.ReadRequest::total          210                      

system.ruby.dma_cntrl0.WriteRequest      |       44448    100.00%    100.00% |           0      0.00%    100.00%
system.ruby.dma_cntrl0.WriteRequest::total        44448                      

system.ruby.dma_cntrl0.Data              |         210    100.00%    100.00% |           0      0.00%    100.00%
system.ruby.dma_cntrl0.Data::total                210                      

system.ruby.dma_cntrl0.Ack               |       44448    100.00%    100.00% |           0      0.00%    100.00%
system.ruby.dma_cntrl0.Ack::total               44448                      

system.ruby.dma_cntrl0.READY.ReadRequest |         210    100.00%    100.00% |           0      0.00%    100.00%
system.ruby.dma_cntrl0.READY.ReadRequest::total          210                      

system.ruby.dma_cntrl0.READY.WriteRequest |       44448    100.00%    100.00% |           0      0.00%    100.00%
system.ruby.dma_cntrl0.READY.WriteRequest::total        44448                      

system.ruby.dma_cntrl0.BUSY_RD.Data      |         210    100.00%    100.00% |           0      0.00%    100.00%
system.ruby.dma_cntrl0.BUSY_RD.Data::total          210                      

system.ruby.dma_cntrl0.BUSY_WR.Ack       |       44448    100.00%    100.00% |           0      0.00%    100.00%
system.ruby.dma_cntrl0.BUSY_WR.Ack::total        44448                      

system.ruby.dir_cntrl0.GETX                   4701237      0.00%      0.00%
system.ruby.dir_cntrl0.PUTX                   4700213      0.00%      0.00%
system.ruby.dir_cntrl0.DMA_READ                   210      0.00%      0.00%
system.ruby.dir_cntrl0.DMA_WRITE                44448      0.00%      0.00%
system.ruby.dir_cntrl0.Memory_Data            4701347      0.00%      0.00%
system.ruby.dir_cntrl0.Memory_Ack             4744647      0.00%      0.00%
system.ruby.dir_cntrl0.I.GETX                 4701237      0.00%      0.00%
system.ruby.dir_cntrl0.I.DMA_READ                 110      0.00%      0.00%
system.ruby.dir_cntrl0.I.DMA_WRITE              44434      0.00%      0.00%
system.ruby.dir_cntrl0.M.PUTX                 4700099      0.00%      0.00%
system.ruby.dir_cntrl0.M.DMA_READ                 100      0.00%      0.00%
system.ruby.dir_cntrl0.M.DMA_WRITE                 14      0.00%      0.00%
system.ruby.dir_cntrl0.M_DRD.PUTX                 100      0.00%      0.00%
system.ruby.dir_cntrl0.M_DWR.PUTX                  14      0.00%      0.00%
system.ruby.dir_cntrl0.M_DWRI.Memory_Ack           14      0.00%      0.00%
system.ruby.dir_cntrl0.M_DRDI.Memory_Ack          100      0.00%      0.00%
system.ruby.dir_cntrl0.IM.Memory_Data         4701237      0.00%      0.00%
system.ruby.dir_cntrl0.MI.Memory_Ack          4700099      0.00%      0.00%
system.ruby.dir_cntrl0.ID.Memory_Data             110      0.00%      0.00%
system.ruby.dir_cntrl0.ID_W.Memory_Ack          44434      0.00%      0.00%
system.cpu.kern.inst.arm                            0                       # number of arm instructions executed
system.cpu.kern.inst.quiesce                     7095                       # number of quiesce instructions executed
system.cpu.kern.inst.hwrei                     235971                       # number of hwrei instructions executed
system.cpu.kern.ipl_count::0                    82408     40.26%     40.26% # number of times we switched to this ipl
system.cpu.kern.ipl_count::21                     119      0.06%     40.32% # number of times we switched to this ipl
system.cpu.kern.ipl_count::22                    2425      1.18%     41.50% # number of times we switched to this ipl
system.cpu.kern.ipl_count::31                  119727     58.50%    100.00% # number of times we switched to this ipl
system.cpu.kern.ipl_count::total               204679                       # number of times we switched to this ipl
system.cpu.kern.ipl_good::0                     80871     49.23%     49.23% # number of times we switched to this ipl from a different ipl
system.cpu.kern.ipl_good::21                      119      0.07%     49.30% # number of times we switched to this ipl from a different ipl
system.cpu.kern.ipl_good::22                     2425      1.48%     50.77% # number of times we switched to this ipl from a different ipl
system.cpu.kern.ipl_good::31                    80872     49.23%    100.00% # number of times we switched to this ipl from a different ipl
system.cpu.kern.ipl_good::total                164287                       # number of times we switched to this ipl from a different ipl
system.cpu.kern.ipl_ticks::0             2327064933500     95.56%     95.56% # number of cycles we spent at this ipl
system.cpu.kern.ipl_ticks::21               100801000      0.00%     95.57% # number of cycles we spent at this ipl
system.cpu.kern.ipl_ticks::22               601803000      0.02%     95.59% # number of cycles we spent at this ipl
system.cpu.kern.ipl_ticks::31            107314725000      4.41%    100.00% # number of cycles we spent at this ipl
system.cpu.kern.ipl_ticks::total         2435082262500                       # number of cycles we spent at this ipl
system.cpu.kern.ipl_used::0                  0.981349                       # fraction of swpipl calls that actually changed the ipl
system.cpu.kern.ipl_used::21                        1                       # fraction of swpipl calls that actually changed the ipl
system.cpu.kern.ipl_used::22                        1                       # fraction of swpipl calls that actually changed the ipl
system.cpu.kern.ipl_used::31                 0.675470                       # fraction of swpipl calls that actually changed the ipl
system.cpu.kern.ipl_used::total              0.802657                       # fraction of swpipl calls that actually changed the ipl
system.cpu.kern.syscall::2                          8      2.19%      2.19% # number of syscalls executed
system.cpu.kern.syscall::3                         33      9.04%     11.23% # number of syscalls executed
system.cpu.kern.syscall::4                          4      1.10%     12.33% # number of syscalls executed
system.cpu.kern.syscall::6                         45     12.33%     24.66% # number of syscalls executed
system.cpu.kern.syscall::12                         2      0.55%     25.21% # number of syscalls executed
system.cpu.kern.syscall::15                         1      0.27%     25.48% # number of syscalls executed
system.cpu.kern.syscall::17                        18      4.93%     30.41% # number of syscalls executed
system.cpu.kern.syscall::19                        11      3.01%     33.42% # number of syscalls executed
system.cpu.kern.syscall::20                         6      1.64%     35.07% # number of syscalls executed
system.cpu.kern.syscall::23                         4      1.10%     36.16% # number of syscalls executed
system.cpu.kern.syscall::24                         8      2.19%     38.36% # number of syscalls executed
system.cpu.kern.syscall::33                        12      3.29%     41.64% # number of syscalls executed
system.cpu.kern.syscall::41                         2      0.55%     42.19% # number of syscalls executed
system.cpu.kern.syscall::45                        62     16.99%     59.18% # number of syscalls executed
system.cpu.kern.syscall::47                         8      2.19%     61.37% # number of syscalls executed
system.cpu.kern.syscall::48                        10      2.74%     64.11% # number of syscalls executed
system.cpu.kern.syscall::54                        11      3.01%     67.12% # number of syscalls executed
system.cpu.kern.syscall::58                         2      0.55%     67.67% # number of syscalls executed
system.cpu.kern.syscall::59                         7      1.92%     69.59% # number of syscalls executed
system.cpu.kern.syscall::71                        62     16.99%     86.58% # number of syscalls executed
system.cpu.kern.syscall::73                         5      1.37%     87.95% # number of syscalls executed
system.cpu.kern.syscall::74                        18      4.93%     92.88% # number of syscalls executed
system.cpu.kern.syscall::87                         2      0.55%     93.42% # number of syscalls executed
system.cpu.kern.syscall::90                         3      0.82%     94.25% # number of syscalls executed
system.cpu.kern.syscall::92                         9      2.47%     96.71% # number of syscalls executed
system.cpu.kern.syscall::97                         2      0.55%     97.26% # number of syscalls executed
system.cpu.kern.syscall::98                         2      0.55%     97.81% # number of syscalls executed
system.cpu.kern.syscall::132                        4      1.10%     98.90% # number of syscalls executed
system.cpu.kern.syscall::144                        2      0.55%     99.45% # number of syscalls executed
[...]
system.tsunami.ethernet.postedSwi                   0                       # number of software interrupts posted to CPU
system.tsunami.ethernet.coalescedSwi              nan                       # average number of Swi's coalesced into each post
system.tsunami.ethernet.totalSwi                    0                       # total number of Swi written to ISR
system.tsunami.ethernet.postedRxIdle                0                       # number of rxIdle interrupts posted to CPU
system.tsunami.ethernet.coalescedRxIdle           nan                       # average number of RxIdle's coalesced into each post
system.tsunami.ethernet.totalRxIdle                 0                       # total number of RxIdle written to ISR
system.tsunami.ethernet.postedRxOk                  0                       # number of RxOk interrupts posted to CPU
system.tsunami.ethernet.coalescedRxOk             nan                       # average number of RxOk's coalesced into each post
system.tsunami.ethernet.totalRxOk                   0                       # total number of RxOk written to ISR
system.tsunami.ethernet.postedRxDesc                0                       # number of RxDesc interrupts posted to CPU
system.tsunami.ethernet.coalescedRxDesc           nan                       # average number of RxDesc's coalesced into each post
system.tsunami.ethernet.totalRxDesc                 0                       # total number of RxDesc written to ISR
system.tsunami.ethernet.postedTxOk                  0                       # number of TxOk interrupts posted to CPU
system.tsunami.ethernet.coalescedTxOk             nan                       # average number of TxOk's coalesced into each post
system.tsunami.ethernet.totalTxOk                   0                       # total number of TxOk written to ISR
system.tsunami.ethernet.postedTxIdle                0                       # number of TxIdle interrupts posted to CPU
system.tsunami.ethernet.coalescedTxIdle           nan                       # average number of TxIdle's coalesced into each post
system.tsunami.ethernet.totalTxIdle                 0                       # total number of TxIdle written to ISR
system.tsunami.ethernet.postedTxDesc                0                       # number of TxDesc interrupts posted to CPU
system.tsunami.ethernet.coalescedTxDesc           nan                       # average number of TxDesc's coalesced into each post
system.tsunami.ethernet.totalTxDesc                 0                       # total number of TxDesc written to ISR
system.tsunami.ethernet.postedRxOrn                 0                       # number of RxOrn posted to CPU
system.tsunami.ethernet.coalescedRxOrn            nan                       # average number of RxOrn's coalesced into each post
system.tsunami.ethernet.totalRxOrn                  0                       # total number of RxOrn written to ISR
system.tsunami.ethernet.coalescedTotal            nan                       # average number of interrupts coalesced into each post
system.tsunami.ethernet.postedInterrupts            0                       # number of posts to CPU
system.tsunami.ethernet.droppedPackets              0                       # number of packets dropped
system.ruby.network.routers0.throttle0.link_utilization     3.955356                      
system.ruby.network.routers0.throttle0.msg_count.Response_Data::4        37764                      
system.ruby.network.routers0.throttle0.msg_count.Writeback_Control::3        37765                      
system.ruby.network.routers0.throttle0.msg_bytes.Response_Data::4      2719008                      
system.ruby.network.routers0.throttle0.msg_bytes.Writeback_Control::3       302120                      
system.ruby.network.routers0.throttle1.link_utilization     3.955345                      
system.ruby.network.routers0.throttle1.msg_count.Control::2        37764                      
system.ruby.network.routers0.throttle1.msg_count.Data::2        37764                      
system.ruby.network.routers0.throttle1.msg_bytes.Control::2       302112                      
system.ruby.network.routers0.throttle1.msg_bytes.Data::2      2719008                      
system.ruby.network.routers1.throttle0.link_utilization     3.956026                      
system.ruby.network.routers1.throttle0.msg_count.Control::2        37764                      
system.ruby.network.routers1.throttle0.msg_count.Data::2        37764                      
system.ruby.network.routers1.throttle0.msg_count.Writeback_Control::0           65                      
system.ruby.network.routers1.throttle0.msg_bytes.Control::2       302112                      
system.ruby.network.routers1.throttle0.msg_bytes.Data::2      2719008                      
system.ruby.network.routers1.throttle0.msg_bytes.Writeback_Control::0          520                      
system.ruby.network.routers1.throttle1.link_utilization     3.956120                      
system.ruby.network.routers1.throttle1.msg_count.Response_Data::1            1                      
system.ruby.network.routers1.throttle1.msg_count.Response_Data::4        37764                      
system.ruby.network.routers1.throttle1.msg_count.Writeback_Control::1           64                      
system.ruby.network.routers1.throttle1.msg_count.Writeback_Control::3        37765                      
system.ruby.network.routers1.throttle1.msg_bytes.Response_Data::1           72                      
system.ruby.network.routers1.throttle1.msg_bytes.Response_Data::4      2719008                      
system.ruby.network.routers1.throttle1.msg_bytes.Writeback_Control::1          512                      
system.ruby.network.routers1.throttle1.msg_bytes.Writeback_Control::3       302120                      
system.ruby.network.routers2.throttle0.link_utilization     0.000765                      
system.ruby.network.routers2.throttle0.msg_count.Response_Data::1            1                      
system.ruby.network.routers2.throttle0.msg_count.Writeback_Control::1           64                      
system.ruby.network.routers2.throttle0.msg_bytes.Response_Data::1           72                      
system.ruby.network.routers2.throttle0.msg_bytes.Writeback_Control::1          512                      
system.ruby.network.routers2.throttle1.link_utilization     0.000681                      
system.ruby.network.routers2.throttle1.msg_count.Writeback_Control::0           65                      
system.ruby.network.routers2.throttle1.msg_bytes.Writeback_Control::0          520                      
system.ruby.network.routers3.throttle0.link_utilization            0                      
system.ruby.network.routers3.throttle1.link_utilization            0                      
system.ruby.network.routers4.throttle0.link_utilization     3.955356                      
system.ruby.network.routers4.throttle0.msg_count.Response_Data::4        37764                      
system.ruby.network.routers4.throttle0.msg_count.Writeback_Control::3        37765                      
system.ruby.network.routers4.throttle0.msg_bytes.Response_Data::4      2719008                      
system.ruby.network.routers4.throttle0.msg_bytes.Writeback_Control::3       302120                      
system.ruby.network.routers4.throttle1.link_utilization     3.956026                      
system.ruby.network.routers4.throttle1.msg_count.Control::2        37764                      
system.ruby.network.routers4.throttle1.msg_count.Data::2        37764                      
system.ruby.network.routers4.throttle1.msg_count.Writeback_Control::0           65                      
system.ruby.network.routers4.throttle1.msg_bytes.Control::2       302112                      
system.ruby.network.routers4.throttle1.msg_bytes.Data::2      2719008                      
system.ruby.network.routers4.throttle1.msg_bytes.Writeback_Control::0          520                      
system.ruby.network.routers4.throttle2.link_utilization     0.000765                      
system.ruby.network.routers4.throttle2.msg_count.Response_Data::1            1                      
system.ruby.network.routers4.throttle2.msg_count.Writeback_Control::1           64                      
system.ruby.network.routers4.throttle2.msg_bytes.Response_Data::1           72                      
system.ruby.network.routers4.throttle2.msg_bytes.Writeback_Control::1          512                      
system.ruby.network.routers4.throttle3.link_utilization            0                      
system.ruby.l1_cntrl0.Load                     196470      0.00%      0.00%
system.ruby.l1_cntrl0.Ifetch                   537657      0.00%      0.00%
system.ruby.l1_cntrl0.Store                    158551      0.00%      0.00%
system.ruby.l1_cntrl0.Data                      37764      0.00%      0.00%
system.ruby.l1_cntrl0.Inv                           2      0.00%      0.00%
system.ruby.l1_cntrl0.Replacement               37763      0.00%      0.00%
system.ruby.l1_cntrl0.Writeback_Ack             37764      0.00%      0.00%
system.ruby.l1_cntrl0.I.Load                    11735      0.00%      0.00%
system.ruby.l1_cntrl0.I.Ifetch                  15850      0.00%      0.00%
system.ruby.l1_cntrl0.I.Store                   10179      0.00%      0.00%
system.ruby.l1_cntrl0.M.Load                   184735      0.00%      0.00%
system.ruby.l1_cntrl0.M.Ifetch                 521807      0.00%      0.00%
system.ruby.l1_cntrl0.M.Store                  148372      0.00%      0.00%
system.ruby.l1_cntrl0.M.Inv                         1      0.00%      0.00%
system.ruby.l1_cntrl0.M.Replacement             37763      0.00%      0.00%
system.ruby.l1_cntrl0.MI.Inv                        1      0.00%      0.00%
system.ruby.l1_cntrl0.MI.Writeback_Ack          37764      0.00%      0.00%
system.ruby.l1_cntrl0.IS.Data                   27585      0.00%      0.00%
system.ruby.l1_cntrl0.IM.Data                   10179      0.00%      0.00%
system.ruby.dma_cntrl0.ReadRequest       |           1    100.00%    100.00% |           0      0.00%    100.00%
system.ruby.dma_cntrl0.ReadRequest::total            1                      

system.ruby.dma_cntrl0.WriteRequest      |          64    100.00%    100.00% |           0      0.00%    100.00%
system.ruby.dma_cntrl0.WriteRequest::total           64                      

system.ruby.dma_cntrl0.Data              |           1    100.00%    100.00% |           0      0.00%    100.00%
system.ruby.dma_cntrl0.Data::total                  1                      

system.ruby.dma_cntrl0.Ack               |          64    100.00%    100.00% |           0      0.00%    100.00%
system.ruby.dma_cntrl0.Ack::total                  64                      

system.ruby.dma_cntrl0.READY.ReadRequest |           1    100.00%    100.00% |           0      0.00%    100.00%
system.ruby.dma_cntrl0.READY.ReadRequest::total            1                      

system.ruby.dma_cntrl0.READY.WriteRequest |          64    100.00%    100.00% |           0      0.00%    100.00%
system.ruby.dma_cntrl0.READY.WriteRequest::total           64                      

system.ruby.dma_cntrl0.BUSY_RD.Data      |           1    100.00%    100.00% |           0      0.00%    100.00%
system.ruby.dma_cntrl0.BUSY_RD.Data::total            1                      

system.ruby.dma_cntrl0.BUSY_WR.Ack       |          64    100.00%    100.00% |           0      0.00%    100.00%
system.ruby.dma_cntrl0.BUSY_WR.Ack::total           64                      

system.ruby.dir_cntrl0.GETX                     37764      0.00%      0.00%
system.ruby.dir_cntrl0.PUTX                     37764      0.00%      0.00%
system.ruby.dir_cntrl0.DMA_READ                     1      0.00%      0.00%
system.ruby.dir_cntrl0.DMA_WRITE                   64      0.00%      0.00%
system.ruby.dir_cntrl0.Memory_Data              37764      0.00%      0.00%
system.ruby.dir_cntrl0.Memory_Ack               37828      0.00%      0.00%
system.ruby.dir_cntrl0.I.GETX                   37764      0.00%      0.00%
system.ruby.dir_cntrl0.I.DMA_WRITE                 64      0.00%      0.00%
system.ruby.dir_cntrl0.M.PUTX                   37763      0.00%      0.00%
system.ruby.dir_cntrl0.M.DMA_READ                   1      0.00%      0.00%
system.ruby.dir_cntrl0.M_DRD.PUTX                   1      0.00%      0.00%
system.ruby.dir_cntrl0.M_DRDI.Memory_Ack            1      0.00%      0.00%
system.ruby.dir_cntrl0.IM.Memory_Data           37764      0.00%      0.00%
system.ruby.dir_cntrl0.MI.Memory_Ack            37763      0.00%      0.00%
system.ruby.dir_cntrl0.ID_W.Memory_Ack             64      0.00%      0.00%
system.cpu.kern.inst.arm                            0                       # number of arm instructions executed
system.cpu.kern.inst.quiesce                        3                       # number of quiesce instructions executed
system.cpu.kern.inst.hwrei                       3744                       # number of hwrei instructions executed
system.cpu.kern.ipl_count::0                      832     45.02%     45.02% # number of times we switched to this ipl
system.cpu.kern.ipl_count::21                      12      0.65%     45.67% # number of times we switched to this ipl
system.cpu.kern.ipl_count::22                       2      0.11%     45.78% # number of times we switched to this ipl
system.cpu.kern.ipl_count::31                    1002     54.22%    100.00% # number of times we switched to this ipl
system.cpu.kern.ipl_count::total                 1848                       # number of times we switched to this ipl
system.cpu.kern.ipl_good::0                       830     49.58%     49.58% # number of times we switched to this ipl from a different ipl
system.cpu.kern.ipl_good::21                       12      0.72%     50.30% # number of times we switched to this ipl from a different ipl
system.cpu.kern.ipl_good::22                        2      0.12%     50.42% # number of times we switched to this ipl from a different ipl
system.cpu.kern.ipl_good::31                      830     49.58%    100.00% # number of times we switched to this ipl from a different ipl
system.cpu.kern.ipl_good::total                  1674                       # number of times we switched to this ipl from a different ipl
system.cpu.kern.ipl_ticks::0               2074634500     86.72%     86.72% # number of cycles we spent at this ipl
system.cpu.kern.ipl_ticks::21                 7670500      0.32%     87.04% # number of cycles we spent at this ipl
system.cpu.kern.ipl_ticks::22                 1460500      0.06%     87.10% # number of cycles we spent at this ipl
system.cpu.kern.ipl_ticks::31               308547000     12.90%    100.00% # number of cycles we spent at this ipl
system.cpu.kern.ipl_ticks::total           2392312500                       # number of cycles we spent at this ipl
system.cpu.kern.ipl_used::0                  0.997596                       # fraction of swpipl calls that actually changed the ipl
system.cpu.kern.ipl_used::21                        1                       # fraction of swpipl calls that actually changed the ipl
system.cpu.kern.ipl_used::22                        1                       # fraction of swpipl calls that actually changed the ipl
system.cpu.kern.ipl_used::31                 0.828343                       # fraction of swpipl calls that actually changed the ipl
system.cpu.kern.ipl_used::total              0.905844                       # fraction of swpipl calls that actually changed the ipl
system.cpu.kern.syscall::2                          1      3.12%      3.12% # number of syscalls executed
system.cpu.kern.syscall::3                          2      6.25%      9.38% # number of syscalls executed
system.cpu.kern.syscall::4                          7     21.88%     31.25% # number of syscalls executed
system.cpu.kern.syscall::6                          4     12.50%     43.75% # number of syscalls executed
system.cpu.kern.syscall::17                         1      3.12%     46.88% # number of syscalls executed
system.cpu.kern.syscall::19                         1      3.12%     50.00% # number of syscalls executed
system.cpu.kern.syscall::33                         1      3.12%     53.12% # number of syscalls executed
system.cpu.kern.syscall::45                         3      9.38%     62.50% # number of syscalls executed
system.cpu.kern.syscall::48                         1      3.12%     65.62% # number of syscalls executed
system.cpu.kern.syscall::54                         1      3.12%     68.75% # number of syscalls executed
system.cpu.kern.syscall::59                         1      3.12%     71.88% # number of syscalls executed
system.cpu.kern.syscall::71                         5     15.62%     87.50% # number of syscalls executed
system.cpu.kern.syscall::73                         3      9.38%     96.88% # number of syscalls executed
system.cpu.kern.syscall::74                         1      3.12%    100.00% # number of syscalls executed
system.cpu.kern.syscall::total                     32                       # number of syscalls executed
system.cpu.kern.callpal::swpctx                   122      5.82%      5.82% # number of callpals executed
system.cpu.kern.callpal::tbi                        6      0.29%      6.11% # number of callpals executed
system.cpu.kern.callpal::swpipl                  1621     77.34%     83.44% # number of callpals executed
system.cpu.kern.callpal::rdps                      22      1.05%     84.49% # number of callpals executed
system.cpu.kern.callpal::wrusp                      1      0.05%     84.54% # number of callpals executed
system.cpu.kern.callpal::rdusp                      1      0.05%     84.59% # number of callpals executed
system.cpu.kern.callpal::rti                      213     10.16%     94.75% # number of callpals executed
system.cpu.kern.callpal::callsys                   49      2.34%     97.09% # number of callpals executed
system.cpu.kern.callpal::imb                        9      0.43%     97.52% # number of callpals executed
system.cpu.kern.callpal::rdunique                  52      2.48%    100.00% # number of callpals executed
system.cpu.kern.callpal::total                   2096                       # number of callpals executed
system.cpu.kern.mode_switch::kernel               333                       # number of protection mode switches
system.cpu.kern.mode_switch::user                 197                       # number of protection mode switches
system.cpu.kern.mode_switch::idle                   2                       # number of protection mode switches
system.cpu.kern.mode_good::kernel                 198                      
system.cpu.kern.mode_good::user                   197                      
system.cpu.kern.mode_good::idle                     1                      
system.cpu.kern.mode_switch_good::kernel     0.594595                       # fraction of useful protection mode switches
system.cpu.kern.mode_switch_good::user              1                       # fraction of useful protection mode switches
system.cpu.kern.mode_switch_good::idle       0.500000                       # fraction of useful protection mode switches
system.cpu.kern.mode_switch_good::total      0.744361                       # fraction of useful protection mode switches
system.cpu.kern.mode_ticks::kernel         1743023000     72.86%     72.86% # number of ticks spent at the given mode
system.cpu.kern.mode_ticks::user            627842500     26.24%     99.10% # number of ticks spent at the given mode
system.cpu.kern.mode_ticks::idle             21447000      0.90%    100.00% # number of ticks spent at the given mode
system.cpu.kern.swap_context                      122                       # number of times the context was actually changed

---------- End Simulation Statistics   ----------
